 xtb: 6.6.1 (unknown-commit)
          01102418293D

 53 48  0     0  0            999 V2000
    1.7630   -1.2436   -1.8012 O   0  0  0  0  0  0  0  0  0  0  0  0
    1.3164   -2.4527   -1.2565 C   0  0  0  0  0  0  0  0  0  0  0  0
    1.8674   -3.2504   -1.7685 H   0  0  0  0  0  0  0  0  0  0  0  0
    1.5468   -2.5281   -0.1906 H   0  0  0  0  0  0  0  0  0  0  0  0
   -0.1727   -2.7406   -1.5381 C   0  0  0  0  0  0  0  0  0  0  0  0
   -0.3577   -3.7868   -1.2861 H   0  0  0  0  0  0  0  0  0  0  0  0
   -0.3352   -2.6031   -2.6095 H   0  0  0  0  0  0  0  0  0  0  0  0
   -1.1830   -1.9154   -0.8223 N   0  0  0  0  0  0  0  0  0  0  0  0
   -1.0204   -2.0023    0.6379 C   0  0  0  0  0  0  0  0  0  0  0  0
   -1.0874   -3.0390    0.9615 H   0  0  0  0  0  0  0  0  0  0  0  0
   -1.8169   -1.4202    1.1013 H   0  0  0  0  0  0  0  0  0  0  0  0
   -0.0594   -1.5977    0.9431 H   0  0  0  0  0  0  0  0  0  0  0  0
   -2.5269   -2.4193   -1.1614 C   0  0  0  0  0  0  0  0  0  0  0  0
   -2.6351   -3.4561   -0.8493 H   0  0  0  0  0  0  0  0  0  0  0  0
   -2.6950   -2.3529   -2.2343 H   0  0  0  0  0  0  0  0  0  0  0  0
   -3.2643   -1.8072   -0.6420 H   0  0  0  0  0  0  0  0  0  0  0  0
   -1.1184   -0.5001   -1.2277 C   0  0  0  0  0  0  0  0  0  0  0  0
   -1.1991   -0.4154   -2.3084 H   0  0  0  0  0  0  0  0  0  0  0  0
   -0.1834   -0.0511   -0.9089 H   0  0  0  0  0  0  0  0  0  0  0  0
   -1.9427    0.0307   -0.7493 H   0  0  0  0  0  0  0  0  0  0  0  0
    1.7744   -0.5552   -1.1130 H   0  0  0  0  0  0  0  0  0  0  0  0
    4.2587   -1.5880    0.6121 C   0  0  0  0  0  0  0  0  0  0  0  0
    3.3131   -2.0103    1.2751 O   0  0  0  0  0  0  0  0  0  0  0  0
    5.3391   -2.3609    0.3529 N   0  0  0  0  0  0  0  0  0  0  0  0
    5.4116   -3.2411    0.8322 H   0  0  0  0  0  0  0  0  0  0  0  0
    6.1672   -1.9852   -0.0721 H   0  0  0  0  0  0  0  0  0  0  0  0
    4.2777   -0.3341    0.1087 N   0  0  0  0  0  0  0  0  0  0  0  0
    4.9755   -0.0593   -0.5584 H   0  0  0  0  0  0  0  0  0  0  0  0
    3.4113    0.1920    0.1265 H   0  0  0  0  0  0  0  0  0  0  0  0
   -0.5781    3.1807   -1.2835 C   0  0  0  0  0  0  0  0  0  0  0  0
   -1.2110    2.8452   -0.2787 O   0  0  0  0  0  0  0  0  0  0  0  0
    0.6492    2.7040   -1.5394 N   0  0  0  0  0  0  0  0  0  0  0  0
    1.0603    2.0218   -0.9018 H   0  0  0  0  0  0  0  0  0  0  0  0
    1.1592    2.9717   -2.3604 H   0  0  0  0  0  0  0  0  0  0  0  0
   -1.1144    4.0232   -2.1995 N   0  0  0  0  0  0  0  0  0  0  0  0
   -0.5636    4.4063   -2.9463 H   0  0  0  0  0  0  0  0  0  0  0  0
   -1.9808    4.4797   -1.9753 H   0  0  0  0  0  0  0  0  0  0  0  0
    1.1135    0.7108    1.3997 C   0  0  0  0  0  0  0  0  0  0  0  0
    1.5243    0.6745    0.2181 O   0  0  0  0  0  0  0  0  0  0  0  0
    1.5524   -0.1817    2.2976 N   0  0  0  0  0  0  0  0  0  0  0  0
    2.2715   -0.8610    2.0127 H   0  0  0  0  0  0  0  0  0  0  0  0
    1.3185   -0.0992    3.2699 H   0  0  0  0  0  0  0  0  0  0  0  0
    0.1964    1.6088    1.7807 N   0  0  0  0  0  0  0  0  0  0  0  0
   -0.1688    1.6024    2.7155 H   0  0  0  0  0  0  0  0  0  0  0  0
   -0.2938    2.1566    1.0689 H   0  0  0  0  0  0  0  0  0  0  0  0
   -4.1217    0.8693    1.0733 C   0  0  0  0  0  0  0  0  0  0  0  0
   -3.4709   -0.0942    0.6761 O   0  0  0  0  0  0  0  0  0  0  0  0
   -3.7716    2.1417    0.8065 N   0  0  0  0  0  0  0  0  0  0  0  0
   -2.8759    2.3441    0.3749 H   0  0  0  0  0  0  0  0  0  0  0  0
   -4.2656    2.9067    1.2291 H   0  0  0  0  0  0  0  0  0  0  0  0
   -5.2458    0.7016    1.8170 N   0  0  0  0  0  0  0  0  0  0  0  0
   -5.8557    1.4692    2.0318 H   0  0  0  0  0  0  0  0  0  0  0  0
   -5.6076   -0.2286    1.9298 H   0  0  0  0  0  0  0  0  0  0  0  0
  1  2  1  0  0  0  0
  2  3  1  0  0  0  0
  2  4  1  0  0  0  0
  2  5  1  0  0  0  0
  5  6  1  0  0  0  0
  5  7  1  0  0  0  0
  5  8  1  0  0  0  0
  8  9  1  0  0  0  0
  9 10  1  0  0  0  0
  9 11  1  0  0  0  0
  9 12  1  0  0  0  0
  8 13  1  0  0  0  0
 13 14  1  0  0  0  0
 13 15  1  0  0  0  0
 13 16  1  0  0  0  0
  8 17  1  0  0  0  0
 17 18  1  0  0  0  0
 17 19  1  0  0  0  0
 17 20  1  0  0  0  0
  1 21  1  0  0  0  0
 22 23  2  0  0  0  0
 22 24  4  0  0  0  0
 24 25  1  0  0  0  0
 24 26  1  0  0  0  0
 22 27  4  0  0  0  0
 27 28  1  0  0  0  0
 27 29  1  0  0  0  0
 30 31  4  0  0  0  0
 30 32  4  0  0  0  0
 32 33  1  0  0  0  0
 32 34  1  0  0  0  0
 30 35  4  0  0  0  0
 35 36  1  0  0  0  0
 35 37  1  0  0  0  0
 38 39  4  0  0  0  0
 38 40  4  0  0  0  0
 40 41  1  0  0  0  0
 40 42  1  0  0  0  0
 38 43  4  0  0  0  0
 43 44  1  0  0  0  0
 43 45  1  0  0  0  0
 46 47  2  0  0  0  0
 46 48  4  0  0  0  0
 48 49  1  0  0  0  0
 48 50  1  0  0  0  0
 46 51  1  0  0  0  0
 51 52  1  0  0  0  0
 51 53  1  0  0  0  0
M  CHG  1   1   1
M  END
