  53

 O         -1.9059191232       -0.6682659405        1.9595904769
 C         -0.8323207298       -1.5454186970        1.7764562471
 H         -0.4844141438       -1.8231344281        2.7750649600
 H         -1.1470571199       -2.4622903968        1.2625649670
 C          0.3113115550       -0.9713748564        0.9277112798
 H         -0.0578613911       -0.7809288683       -0.0822386605
 H          1.0859895325       -1.7362922327        0.8659301574
 N          0.9245268345        0.2893976369        1.4231038799
 C          0.0151020871        1.4270796079        1.2035786779
 H         -0.1896170551        1.5173434456        0.1394993140
 H          0.5017996665        2.3311542660        1.5652589647
 H         -0.9171908971        1.2582074386        1.7377171225
 C          2.1560824206        0.5421453311        0.6564255818
 H          1.9110851996        0.5922288127       -0.4027849700
 H          2.8749829389       -0.2569221515        0.8234996121
 H          2.5821456082        1.4888114019        0.9850584470
 C          1.2564335403        0.2180536658        2.8533961548
 H          1.8845061653       -0.6484620974        3.0506328584
 H          0.3460310546        0.1497715314        3.4434085558
 H          1.7899109359        1.1274599120        3.1280868368
 H         -2.3583742204       -0.5623293549        1.0977327281
 C          0.7160615943       -3.2423774202       -1.9752409800
 O         -0.2023426100       -3.1351648501       -1.1715642763
 N          1.0602200781       -4.4477216011       -2.5032005503
 H          0.6360443849       -5.2691276405       -2.1092156621
 H          1.9047315243       -4.5692125336       -3.0324663040
 N          1.4596336334       -2.1859797067       -2.3761345038
 H          2.0915187495       -2.2842082528       -3.1510679549
 H          1.1059876578       -1.2523171336       -2.1842504213
 C          2.8698927432        4.1445006602        2.9687268079
 O          2.4096252079        3.1109518122        2.5045493948
 N          4.1600834052        4.2444881253        3.3698951685
 H          4.7796040444        3.4746362105        3.1920105960
 H          4.5625706717        5.1176609874        3.6568608264
 N          2.1239696400        5.2664067770        3.1150199464
 H          2.4710098827        6.0746334898        3.5980638835
 H          1.1374587424        5.2136549187        2.9347515349
 C         -0.4177383634        0.9247969970       -2.7273280719
 O          0.4126971275        0.4308147004       -1.9633272579
 N         -0.0368121044        1.4910710685       -3.9023621509
 H          0.9448823652        1.6265851570       -4.0677778523
 H         -0.6809483508        2.0182379699       -4.4636491674
 N         -1.7307573552        0.9444565756       -2.4482353436
 H         -2.3915665056        1.2693475476       -3.1310234532
 H         -2.0947897701        0.3813167684       -1.6793204403
 C         -3.5965085955       -1.6921300461       -0.8625418535
 O         -2.9712733451       -0.6757982945       -0.5413243559
 N         -4.9510554687       -1.7013948824       -0.8534446428
 H         -5.4293947651       -0.8976984404       -0.4869626095
 H         -5.4808166238       -2.5388747046       -1.0112688125
 N         -2.9820404866       -2.8102917833       -1.2708542681
 H         -3.5010804326       -3.6419982322       -1.4852830879
 H         -1.9657949918       -2.8691127917       -1.2441429848
