53
 xtb: 6.6.1 (unknown-commit)
O           -1.90120344708863       -0.67641562187787        1.96333408851481
C           -0.82637925943436       -1.54943584703594        1.77618827399675
H           -0.48188849291624       -1.82445178403667        2.77466515126884
H           -1.14497636898095       -2.46346741608782        1.26229756658463
C            0.31398662836696       -0.97126558477376        0.92585402153517
H           -0.05791043482805       -0.78059253859337       -0.08241943821060
H            1.08721346413552       -1.73572928056963        0.86444590994966
N            0.92568989581134        0.28999919920538        1.42199056945254
C            0.01303159584790        1.42600054869860        1.20722269181364
H           -0.19090389288640        1.51764387913160        0.14073548977226
H            0.50084083726354        2.33085633228298        1.56677474868298
H           -0.91733469428770        1.25690591282758        1.73924472475823
C            2.15454579427317        0.54691537488659        0.65254173498189
H            1.90979294318539        0.59400658144432       -0.40369908379272
H            2.87519178782319       -0.25517458972842        0.82135438174588
H            2.58140657418076        1.49027779118284        0.98402603989262
C            1.26146211449987        0.21682700677463        2.85135982745548
H            1.88676380395876       -0.64846318223351        3.04908804749383
H            0.34800243549890        0.14844928453157        3.44348534490346
H            1.79083388035891        1.12742833549843        3.12753143371003
H           -2.35772531325395       -0.56422264726071        1.09897921563017
C            0.71808012498722       -3.23628837067559       -1.98175174543979
O           -0.19877500078530       -3.13228997551067       -1.17712412836239
N            1.06432861341392       -4.43919684501776       -2.51342453911925
H            0.63784701913090       -5.26734585182616       -2.11221276439406
H            1.90564674671225       -4.56609178031510       -3.03566004497503
N            1.45861010057932       -2.17677022343033       -2.38219483648038
H            2.09093343011611       -2.28090110837227       -3.15304301124637
H            1.10516043332164       -1.25019684374498       -2.18521314266981
C            2.87347791142215        4.14407573416557        2.96808429058108
O            2.40710199803704        3.11313716312569        2.50444031642326
N            4.12297492177059        4.18956555991086        3.51441120134402
H            4.76307206800313        3.44743523114446        3.26176808218589
H            4.55721824633444        5.10034306343883        3.69698584000846
N            2.17651066813741        5.31713884647650        2.96843232644946
H            2.48296914086100        6.09016329129750        3.55704083644177
H            1.15658721313321        5.24065601781438        2.86418827495442
C           -0.42775341125451        0.92764060991434       -2.72558038490871
O            0.40413855733062        0.43669464246700       -1.96290199210933
N           -0.05134818267637        1.49526758911230       -3.90113521648532
H            0.94079558429900        1.62839819070513       -4.06797620555916
H           -0.68554900250746        2.01873202721528       -4.46310884683331
N           -1.74111938466590        0.94385819803293       -2.44389605533697
H           -2.39493861952103        1.26854994164101       -3.12959323656831
H           -2.09672944137638        0.38078181150272       -1.67802460301605
C           -3.59614210956565       -1.69843920264190       -0.85665181379880
O           -2.97263506790769       -0.68181018913428       -0.53506092298134
N           -4.95060884140342       -1.71177329967695       -0.84290457543035
H           -5.42952117771875       -0.90098157339683       -0.48329135210669
H           -5.48023349618503       -2.54198702335576       -1.00817723935304
N           -2.97994872239309       -2.81485131786981       -1.26812880355281
H           -3.50012280806640       -3.64350610667886       -1.48439157138676
H           -1.96518804428369       -2.86962556005725       -1.24421444957767
