 xtb: 6.6.1 (unknown-commit)
          01102415343D

 53 48  0     0  0            999 V2000
   -1.8060   -1.1297   -2.5035 O   0  0  0  0  0  0  0  0  0  0  0  0
   -0.5724   -0.4952   -2.2876 C   0  0  0  0  0  0  0  0  0  0  0  0
    0.0520   -0.7485   -3.1462 H   0  0  0  0  0  0  0  0  0  0  0  0
   -0.6971    0.5943   -2.2753 H   0  0  0  0  0  0  0  0  0  0  0  0
    0.0945   -0.8647   -0.9591 C   0  0  0  0  0  0  0  0  0  0  0  0
   -0.6392   -0.7262   -0.1614 H   0  0  0  0  0  0  0  0  0  0  0  0
    0.9444   -0.1997   -0.7915 H   0  0  0  0  0  0  0  0  0  0  0  0
    0.6079   -2.2581   -0.8365 N   0  0  0  0  0  0  0  0  0  0  0  0
    1.1627   -2.3894    0.5220 C   0  0  0  0  0  0  0  0  0  0  0  0
    1.9583   -1.6558    0.6496 H   0  0  0  0  0  0  0  0  0  0  0  0
    1.5644   -3.3903    0.6652 H   0  0  0  0  0  0  0  0  0  0  0  0
    0.3747   -2.2114    1.2502 H   0  0  0  0  0  0  0  0  0  0  0  0
    1.6819   -2.5071   -1.8096 C   0  0  0  0  0  0  0  0  0  0  0  0
    1.2939   -2.4683   -2.8238 H   0  0  0  0  0  0  0  0  0  0  0  0
    2.1115   -3.4924   -1.6397 H   0  0  0  0  0  0  0  0  0  0  0  0
    2.4527   -1.7478   -1.6739 H   0  0  0  0  0  0  0  0  0  0  0  0
   -0.4757   -3.2375   -1.0073 C   0  0  0  0  0  0  0  0  0  0  0  0
   -0.9355   -3.1247   -1.9866 H   0  0  0  0  0  0  0  0  0  0  0  0
   -1.2307   -3.0631   -0.2421 H   0  0  0  0  0  0  0  0  0  0  0  0
   -0.0831   -4.2469   -0.9025 H   0  0  0  0  0  0  0  0  0  0  0  0
   -2.4380   -0.8265   -1.8349 H   0  0  0  0  0  0  0  0  0  0  0  0
    3.9671    0.6659   -0.2031 C   0  0  0  0  0  0  0  0  0  0  0  0
    3.1120   -0.1821   -0.4469 O   0  0  0  0  0  0  0  0  0  0  0  0
    3.7981    1.6141    0.7365 N   0  0  0  0  0  0  0  0  0  0  0  0
    2.8700    1.7440    1.1382 H   0  0  0  0  0  0  0  0  0  0  0  0
    4.4535    2.3699    0.8222 H   0  0  0  0  0  0  0  0  0  0  0  0
    5.1506    0.6880   -0.8725 N   0  0  0  0  0  0  0  0  0  0  0  0
    5.9036    1.2866   -0.5855 H   0  0  0  0  0  0  0  0  0  0  0  0
    5.3733   -0.0825   -1.4771 H   0  0  0  0  0  0  0  0  0  0  0  0
   -1.3732    2.9353   -0.5963 C   0  0  0  0  0  0  0  0  0  0  0  0
   -1.8222    1.8356   -0.2498 O   0  0  0  0  0  0  0  0  0  0  0  0
   -2.0208    3.6862   -1.5208 N   0  0  0  0  0  0  0  0  0  0  0  0
   -2.9277    3.3904   -1.8349 H   0  0  0  0  0  0  0  0  0  0  0  0
   -1.7292    4.6213   -1.7392 H   0  0  0  0  0  0  0  0  0  0  0  0
   -0.2187    3.4142   -0.1220 N   0  0  0  0  0  0  0  0  0  0  0  0
    0.1187    4.3194   -0.3930 H   0  0  0  0  0  0  0  0  0  0  0  0
    0.3130    2.8823    0.5753 H   0  0  0  0  0  0  0  0  0  0  0  0
   -3.3017   -1.4090    0.7756 C   0  0  0  0  0  0  0  0  0  0  0  0
   -2.1600   -1.6230    1.1721 O   0  0  0  0  0  0  0  0  0  0  0  0
   -3.5978   -0.3838   -0.0692 N   0  0  0  0  0  0  0  0  0  0  0  0
   -2.9619    0.4103   -0.0998 H   0  0  0  0  0  0  0  0  0  0  0  0
   -4.5668   -0.1586   -0.2220 H   0  0  0  0  0  0  0  0  0  0  0  0
   -4.3246   -2.2364    1.0851 N   0  0  0  0  0  0  0  0  0  0  0  0
   -5.2616   -2.0852    0.7595 H   0  0  0  0  0  0  0  0  0  0  0  0
   -4.1432   -3.0384    1.6618 H   0  0  0  0  0  0  0  0  0  0  0  0
    0.6034    0.9484    2.2729 C   0  0  0  0  0  0  0  0  0  0  0  0
    1.1937    1.8939    1.7414 O   0  0  0  0  0  0  0  0  0  0  0  0
   -0.6938    0.7017    2.0492 N   0  0  0  0  0  0  0  0  0  0  0  0
   -1.1424    1.1995    1.2781 H   0  0  0  0  0  0  0  0  0  0  0  0
   -1.1165   -0.1731    2.3165 H   0  0  0  0  0  0  0  0  0  0  0  0
    1.2587    0.0892    3.1024 N   0  0  0  0  0  0  0  0  0  0  0  0
    0.7300   -0.5193    3.7029 H   0  0  0  0  0  0  0  0  0  0  0  0
    2.1651    0.3738    3.4337 H   0  0  0  0  0  0  0  0  0  0  0  0
  1  2  1  0  0  0  0
  2  3  1  0  0  0  0
  2  4  1  0  0  0  0
  2  5  1  0  0  0  0
  5  6  1  0  0  0  0
  5  7  1  0  0  0  0
  5  8  1  0  0  0  0
  8  9  1  0  0  0  0
  9 10  1  0  0  0  0
  9 11  1  0  0  0  0
  9 12  1  0  0  0  0
  8 13  1  0  0  0  0
 13 14  1  0  0  0  0
 13 15  1  0  0  0  0
 13 16  1  0  0  0  0
  8 17  1  0  0  0  0
 17 18  1  0  0  0  0
 17 19  1  0  0  0  0
 17 20  1  0  0  0  0
  1 21  1  0  0  0  0
 22 23  2  0  0  0  0
 22 24  4  0  0  0  0
 24 25  1  0  0  0  0
 24 26  1  0  0  0  0
 22 27  1  0  0  0  0
 27 28  1  0  0  0  0
 27 29  1  0  0  0  0
 30 31  4  0  0  0  0
 30 32  4  0  0  0  0
 32 33  1  0  0  0  0
 32 34  1  0  0  0  0
 30 35  4  0  0  0  0
 35 36  1  0  0  0  0
 35 37  1  0  0  0  0
 38 39  2  0  0  0  0
 38 40  1  0  0  0  0
 40 41  1  0  0  0  0
 40 42  1  0  0  0  0
 38 43  4  0  0  0  0
 43 44  1  0  0  0  0
 43 45  1  0  0  0  0
 46 47  4  0  0  0  0
 46 48  4  0  0  0  0
 48 49  1  0  0  0  0
 48 50  1  0  0  0  0
 46 51  1  0  0  0  0
 51 52  1  0  0  0  0
 51 53  1  0  0  0  0
M  CHG  1   1   1
M  END
