  53

 O         -1.3001318893       -0.1380021623       -1.4683486632
 C         -0.5548928866       -1.3155774314       -1.3809364758
 H         -1.2458739818       -2.1379387747       -1.6003674077
 H          0.2415092965       -1.3380185382       -2.1303445854
 C          0.0066721765       -1.6177813850        0.0200038497
 H          0.3733601327       -2.6461349144        0.0060680083
 H         -0.8099547670       -1.5282640567        0.7378948145
 N          1.1298539376       -0.7755095207        0.5198244136
 C          2.2387253868       -0.7544723316       -0.4461822322
 H          2.4950692005       -1.7784412152       -0.7132515233
 H          3.1045639218       -0.2744756702        0.0054792372
 H          1.9506838146       -0.1830373586       -1.3264756361
 C          1.5960266890       -1.3977002667        1.7713787606
 H          1.9389126813       -2.4098066441        1.5583111856
 H          0.7807909079       -1.4273312716        2.4916919023
 H          2.4168805443       -0.8197952235        2.1914019513
 C          0.6953860168        0.6005769558        0.8067444708
 H         -0.2031965203        0.5838561572        1.4206790458
 H          0.4895073493        1.1324789048       -0.1193989407
 H          1.4827238638        1.1290217959        1.3402783012
 H         -0.6969114082        0.5885608491       -1.7205671673
 C          2.5608109951       -5.0403012493       -0.2666678365
 O          2.1747255978       -3.9084418823       -0.0071341726
 N          3.1079662650       -5.8501124488        0.6703456502
 H          3.2781185145       -5.4808064605        1.5883483373
 H          3.5056255977       -6.7416012068        0.4384993943
 N          2.4697970677       -5.5651824386       -1.5121399709
 H          2.7016962020       -6.5220179794       -1.7054226217
 H          1.9904337474       -5.0416810541       -2.2221364853
 C         -1.1569715301        3.5990084716        1.7068227073
 O         -1.2492664446        3.1616371364        0.5565723688
 N         -0.7841586852        4.8841002408        1.9385284723
 H         -0.7202160723        5.5114207110        1.1568927344
 H         -0.8287938572        5.2856655426        2.8573804609
 N         -1.3630921290        2.8259079409        2.7813034624
 H         -1.3480085034        3.2050090111        3.7101036022
 H         -1.6591402165        1.8542323942        2.6507051487
 C          0.5842869328        2.6782223524       -2.6339045683
 O          0.7207693301        1.5387131214       -2.1834787725
 N          1.1578915677        3.0351359215       -3.8078799959
 H          1.6391426793        2.3340640636       -4.3413503547
 H          1.0141654849        3.9368035738       -4.2232454388
 N         -0.1089133622        3.6281248044       -1.9878414808
 H         -0.2275973456        4.5417324622       -2.3851614924
 H         -0.5426568333        3.4290490877       -1.0885196660
 C         -2.9061311962        0.0644380983        1.3078287546
 O         -2.0864594756        0.1778209557        2.2246514167
 N         -3.6216505873       -1.0833156106        1.1575917953
 H         -3.6403300219       -1.7222040645        1.9342578528
 H         -4.4007249295       -1.1103078021        0.5239622538
 N         -3.1319388528        1.0407359931        0.4143832228
 H         -3.6072538461        0.8229097319       -0.4433926615
 H         -2.4567490912        1.8047756206        0.3737565987
