 xtb: 6.6.1 (unknown-commit)
          01102415423D

 53 48  0     0  0            999 V2000
   -0.7152    0.6297   -3.3141 O   0  0  0  0  0  0  0  0  0  0  0  0
   -1.2940    1.1902   -2.1752 C   0  0  0  0  0  0  0  0  0  0  0  0
   -1.3765    2.2818   -2.2718 H   0  0  0  0  0  0  0  0  0  0  0  0
   -2.3083    0.7894   -2.1103 H   0  0  0  0  0  0  0  0  0  0  0  0
   -0.5127    0.9346   -0.8745 C   0  0  0  0  0  0  0  0  0  0  0  0
   -1.0050    1.4899   -0.0744 H   0  0  0  0  0  0  0  0  0  0  0  0
    0.5072    1.3087   -0.9917 H   0  0  0  0  0  0  0  0  0  0  0  0
   -0.4031   -0.4822   -0.4370 N   0  0  0  0  0  0  0  0  0  0  0  0
    0.3812   -1.2648   -1.4059 C   0  0  0  0  0  0  0  0  0  0  0  0
   -0.0960   -1.2300   -2.3838 H   0  0  0  0  0  0  0  0  0  0  0  0
    0.4540   -2.2952   -1.0649 H   0  0  0  0  0  0  0  0  0  0  0  0
    1.3802   -0.8440   -1.4921 H   0  0  0  0  0  0  0  0  0  0  0  0
   -1.7252   -1.1020   -0.2675 C   0  0  0  0  0  0  0  0  0  0  0  0
   -2.3265   -0.5183    0.4292 H   0  0  0  0  0  0  0  0  0  0  0  0
   -1.5948   -2.0959    0.1540 H   0  0  0  0  0  0  0  0  0  0  0  0
   -2.2330   -1.1860   -1.2241 H   0  0  0  0  0  0  0  0  0  0  0  0
    0.2960   -0.4933    0.8604 C   0  0  0  0  0  0  0  0  0  0  0  0
   -0.2853    0.0612    1.5924 H   0  0  0  0  0  0  0  0  0  0  0  0
    1.2754   -0.0286    0.7523 H   0  0  0  0  0  0  0  0  0  0  0  0
    0.3980   -1.5172    1.2156 H   0  0  0  0  0  0  0  0  0  0  0  0
    0.1150    1.1069   -3.5113 H   0  0  0  0  0  0  0  0  0  0  0  0
    3.6185    0.5469   -1.0553 C   0  0  0  0  0  0  0  0  0  0  0  0
    2.7633    1.1197   -0.3745 O   0  0  0  0  0  0  0  0  0  0  0  0
    3.4925    0.4298   -2.3907 N   0  0  0  0  0  0  0  0  0  0  0  0
    2.7747    0.9947   -2.8506 H   0  0  0  0  0  0  0  0  0  0  0  0
    4.2431    0.0720   -2.9535 H   0  0  0  0  0  0  0  0  0  0  0  0
    4.6770   -0.0693   -0.4801 N   0  0  0  0  0  0  0  0  0  0  0  0
    5.4188   -0.4722   -1.0227 H   0  0  0  0  0  0  0  0  0  0  0  0
    4.8126    0.0345    0.5097 H   0  0  0  0  0  0  0  0  0  0  0  0
    1.5806    3.3279   -2.8677 C   0  0  0  0  0  0  0  0  0  0  0  0
    1.5334    2.1885   -3.3411 O   0  0  0  0  0  0  0  0  0  0  0  0
    1.9602    3.5472   -1.5963 N   0  0  0  0  0  0  0  0  0  0  0  0
    2.2825    2.7556   -1.0403 H   0  0  0  0  0  0  0  0  0  0  0  0
    2.0730    4.4746   -1.2305 H   0  0  0  0  0  0  0  0  0  0  0  0
    1.1952    4.4015   -3.5922 N   0  0  0  0  0  0  0  0  0  0  0  0
    1.3074    5.3415   -3.2593 H   0  0  0  0  0  0  0  0  0  0  0  0
    0.9596    4.2625   -4.5591 H   0  0  0  0  0  0  0  0  0  0  0  0
   -2.0503   -3.6897    2.2505 C   0  0  0  0  0  0  0  0  0  0  0  0
   -0.9565   -3.1231    2.2364 O   0  0  0  0  0  0  0  0  0  0  0  0
   -3.2064   -3.0006    2.2034 N   0  0  0  0  0  0  0  0  0  0  0  0
   -3.1712   -1.9832    2.2585 H   0  0  0  0  0  0  0  0  0  0  0  0
   -4.0956   -3.4575    2.2881 H   0  0  0  0  0  0  0  0  0  0  0  0
   -2.1450   -5.0407    2.2510 N   0  0  0  0  0  0  0  0  0  0  0  0
   -3.0244   -5.5158    2.3372 H   0  0  0  0  0  0  0  0  0  0  0  0
   -1.3010   -5.5783    2.3358 H   0  0  0  0  0  0  0  0  0  0  0  0
   -2.1860   -0.0469    3.5810 C   0  0  0  0  0  0  0  0  0  0  0  0
   -2.8128   -0.2000    2.5332 O   0  0  0  0  0  0  0  0  0  0  0  0
   -2.4508    0.9865    4.4182 N   0  0  0  0  0  0  0  0  0  0  0  0
   -3.2601    1.5507    4.2284 H   0  0  0  0  0  0  0  0  0  0  0  0
   -2.0298    1.0551    5.3267 H   0  0  0  0  0  0  0  0  0  0  0  0
   -1.1534   -0.8470    3.9139 N   0  0  0  0  0  0  0  0  0  0  0  0
   -0.7130   -0.7859    4.8134 H   0  0  0  0  0  0  0  0  0  0  0  0
   -0.9775   -1.6727    3.3396 H   0  0  0  0  0  0  0  0  0  0  0  0
  1  2  1  0  0  0  0
  2  3  1  0  0  0  0
  2  4  1  0  0  0  0
  2  5  1  0  0  0  0
  5  6  1  0  0  0  0
  5  7  1  0  0  0  0
  5  8  1  0  0  0  0
  8  9  1  0  0  0  0
  9 10  1  0  0  0  0
  9 11  1  0  0  0  0
  9 12  1  0  0  0  0
  8 13  1  0  0  0  0
 13 14  1  0  0  0  0
 13 15  1  0  0  0  0
 13 16  1  0  0  0  0
  8 17  1  0  0  0  0
 17 18  1  0  0  0  0
 17 19  1  0  0  0  0
 17 20  1  0  0  0  0
  1 21  1  0  0  0  0
 22 23  4  0  0  0  0
 22 24  4  0  0  0  0
 24 25  1  0  0  0  0
 24 26  1  0  0  0  0
 22 27  4  0  0  0  0
 27 28  1  0  0  0  0
 27 29  1  0  0  0  0
 30 31  4  0  0  0  0
 30 32  4  0  0  0  0
 32 33  1  0  0  0  0
 32 34  1  0  0  0  0
 30 35  4  0  0  0  0
 35 36  1  0  0  0  0
 35 37  1  0  0  0  0
 38 39  4  0  0  0  0
 38 40  4  0  0  0  0
 40 41  1  0  0  0  0
 40 42  1  0  0  0  0
 38 43  4  0  0  0  0
 43 44  1  0  0  0  0
 43 45  1  0  0  0  0
 46 47  2  0  0  0  0
 46 48  4  0  0  0  0
 48 49  1  0  0  0  0
 48 50  1  0  0  0  0
 46 51  4  0  0  0  0
 51 52  1  0  0  0  0
 51 53  1  0  0  0  0
M  CHG  1   1   1
M  END
