 xtb: 6.6.1 (unknown-commit)
          01102415433D

 53 48  0     0  0            999 V2000
   -0.6566    2.2962    1.9363 O   0  0  0  0  0  0  0  0  0  0  0  0
   -0.6290    2.4434    0.5478 C   0  0  0  0  0  0  0  0  0  0  0  0
   -1.3240    3.2492    0.2994 H   0  0  0  0  0  0  0  0  0  0  0  0
    0.3698    2.7520    0.2109 H   0  0  0  0  0  0  0  0  0  0  0  0
   -0.9641    1.1621   -0.2320 C   0  0  0  0  0  0  0  0  0  0  0  0
   -0.2479    0.3800    0.0331 H   0  0  0  0  0  0  0  0  0  0  0  0
   -0.8909    1.3900   -1.2966 H   0  0  0  0  0  0  0  0  0  0  0  0
   -2.3238    0.5982   -0.0007 N   0  0  0  0  0  0  0  0  0  0  0  0
   -2.4131    0.0239    1.3513 C   0  0  0  0  0  0  0  0  0  0  0  0
   -1.6739   -0.7717    1.4421 H   0  0  0  0  0  0  0  0  0  0  0  0
   -3.4094   -0.3817    1.5158 H   0  0  0  0  0  0  0  0  0  0  0  0
   -2.2053    0.7979    2.0870 H   0  0  0  0  0  0  0  0  0  0  0  0
   -2.5262   -0.4720   -0.9919 C   0  0  0  0  0  0  0  0  0  0  0  0
   -1.7459   -1.2213   -0.8588 H   0  0  0  0  0  0  0  0  0  0  0  0
   -2.4732   -0.0446   -1.9914 H   0  0  0  0  0  0  0  0  0  0  0  0
   -3.5008   -0.9332   -0.8447 H   0  0  0  0  0  0  0  0  0  0  0  0
   -3.3628    1.6209   -0.1887 C   0  0  0  0  0  0  0  0  0  0  0  0
   -3.2299    2.0780   -1.1686 H   0  0  0  0  0  0  0  0  0  0  0  0
   -3.2964    2.3754    0.5908 H   0  0  0  0  0  0  0  0  0  0  0  0
   -4.3462    1.1569   -0.1406 H   0  0  0  0  0  0  0  0  0  0  0  0
    0.0938    1.7008    2.1732 H   0  0  0  0  0  0  0  0  0  0  0  0
    4.0124   -0.7375    0.2460 C   0  0  0  0  0  0  0  0  0  0  0  0
    3.5877   -1.7700    0.7711 O   0  0  0  0  0  0  0  0  0  0  0  0
    5.0856   -0.7728   -0.5816 N   0  0  0  0  0  0  0  0  0  0  0  0
    5.5881   -1.6384   -0.6658 H   0  0  0  0  0  0  0  0  0  0  0  0
    5.5202    0.0636   -0.9257 H   0  0  0  0  0  0  0  0  0  0  0  0
    3.4132    0.4500    0.4193 N   0  0  0  0  0  0  0  0  0  0  0  0
    3.8169    1.2947    0.0586 H   0  0  0  0  0  0  0  0  0  0  0  0
    2.6343    0.5164    1.0791 H   0  0  0  0  0  0  0  0  0  0  0  0
   -2.1805    2.4934   -4.1481 C   0  0  0  0  0  0  0  0  0  0  0  0
   -2.1967    1.9178   -3.0689 O   0  0  0  0  0  0  0  0  0  0  0  0
   -1.4076    3.5838   -4.3732 N   0  0  0  0  0  0  0  0  0  0  0  0
   -0.9089    3.9867   -3.6005 H   0  0  0  0  0  0  0  0  0  0  0  0
   -1.4750    4.1170   -5.2206 H   0  0  0  0  0  0  0  0  0  0  0  0
   -2.9338    2.0852   -5.1970 N   0  0  0  0  0  0  0  0  0  0  0  0
   -2.8489    2.4987   -6.1073 H   0  0  0  0  0  0  0  0  0  0  0  0
   -3.4515    1.2290   -5.1137 H   0  0  0  0  0  0  0  0  0  0  0  0
    0.1226   -3.2196    0.2664 C   0  0  0  0  0  0  0  0  0  0  0  0
   -0.3006   -2.0791    0.4199 O   0  0  0  0  0  0  0  0  0  0  0  0
   -0.7279   -4.2551   -0.0013 N   0  0  0  0  0  0  0  0  0  0  0  0
   -1.7150   -4.0991    0.0976 H   0  0  0  0  0  0  0  0  0  0  0  0
   -0.4090   -5.2068    0.0206 H   0  0  0  0  0  0  0  0  0  0  0  0
    1.4244   -3.5421    0.3290 N   0  0  0  0  0  0  0  0  0  0  0  0
    1.7379   -4.4721    0.1189 H   0  0  0  0  0  0  0  0  0  0  0  0
    2.1319   -2.8215    0.4313 H   0  0  0  0  0  0  0  0  0  0  0  0
    1.1880   -0.4211    3.0624 C   0  0  0  0  0  0  0  0  0  0  0  0
    1.3184    0.5191    2.2699 O   0  0  0  0  0  0  0  0  0  0  0  0
    1.9831   -1.4933    3.0333 N   0  0  0  0  0  0  0  0  0  0  0  0
    2.6208   -1.6143    2.2403 H   0  0  0  0  0  0  0  0  0  0  0  0
    1.8037   -2.2853    3.6230 H   0  0  0  0  0  0  0  0  0  0  0  0
    0.2030   -0.3982    4.0016 N   0  0  0  0  0  0  0  0  0  0  0  0
    0.2119   -1.0571    4.7600 H   0  0  0  0  0  0  0  0  0  0  0  0
   -0.2601    0.4797    4.1674 H   0  0  0  0  0  0  0  0  0  0  0  0
  1  2  1  0  0  0  0
  2  3  1  0  0  0  0
  2  4  1  0  0  0  0
  2  5  1  0  0  0  0
  5  6  1  0  0  0  0
  5  7  1  0  0  0  0
  5  8  1  0  0  0  0
  8  9  1  0  0  0  0
  9 10  1  0  0  0  0
  9 11  1  0  0  0  0
  9 12  1  0  0  0  0
  8 13  1  0  0  0  0
 13 14  1  0  0  0  0
 13 15  1  0  0  0  0
 13 16  1  0  0  0  0
  8 17  1  0  0  0  0
 17 18  1  0  0  0  0
 17 19  1  0  0  0  0
 17 20  1  0  0  0  0
  1 21  1  0  0  0  0
 22 23  4  0  0  0  0
 22 24  4  0  0  0  0
 24 25  1  0  0  0  0
 24 26  1  0  0  0  0
 22 27  4  0  0  0  0
 27 28  1  0  0  0  0
 27 29  1  0  0  0  0
 30 31  2  0  0  0  0
 30 32  4  0  0  0  0
 32 33  1  0  0  0  0
 32 34  1  0  0  0  0
 30 35  4  0  0  0  0
 35 36  1  0  0  0  0
 35 37  1  0  0  0  0
 38 39  2  0  0  0  0
 38 40  1  0  0  0  0
 40 41  1  0  0  0  0
 40 42  1  0  0  0  0
 38 43  4  0  0  0  0
 43 44  1  0  0  0  0
 43 45  1  0  0  0  0
 46 47  4  0  0  0  0
 46 48  4  0  0  0  0
 48 49  1  0  0  0  0
 48 50  1  0  0  0  0
 46 51  1  0  0  0  0
 51 52  1  0  0  0  0
 51 53  1  0  0  0  0
M  CHG  1   1   1
M  END
