  53

 O         -1.6513702792       -1.4300595720        2.2814757695
 C         -0.6090793485       -1.8711245918        1.4605998124
 H          0.1634715419       -2.2668581220        2.1243776452
 H         -0.9460214369       -2.6955118170        0.8142046474
 C         -0.0696352253       -0.7919693573        0.5160040689
 H         -0.9212870525       -0.4191551732       -0.0593118294
 H          0.6503157851       -1.2435419107       -0.1663195581
 N          0.5901792109        0.3767765519        1.1535551592
 C         -0.3527922410        1.1334755951        1.9928273707
 H         -1.2217411014        1.4166381981        1.4021825268
 H          0.1550488254        2.0195857537        2.3698250239
 H         -0.6899864621        0.5158023602        2.8221316754
 C          1.0821122628        1.2599208388        0.0825343698
 H          0.2487717992        1.5893415649       -0.5333964910
 H          1.7919779528        0.7186665802       -0.5397809817
 H          1.5672253913        2.1228796883        0.5358808495
 C          1.7434356691       -0.0302430214        1.9689875637
 H          2.4350329947       -0.6083079443        1.3593114892
 H          1.4170805029       -0.6262170278        2.8170489048
 H          2.2370652711        0.8689904581        2.3365478698
 H         -2.3138985010       -0.9996264001        1.7057738325
 C          2.1361184768       -2.5660534120       -1.9413309609
 O          2.2019189947       -1.3691427303       -1.6446948186
 N          3.2390517354       -3.3500858248       -1.9320071912
 H          4.1318070875       -2.9184539081       -1.7734607462
 H          3.2188456270       -4.3041536735       -2.2418975922
 N          0.9666215337       -3.1605944959       -2.2304071627
 H          0.9255448114       -4.1189734381       -2.5245423357
 H          0.1214143713       -2.5911757770       -2.2994201627
 C          2.6448844576        4.0271005868        2.9957423587
 O          2.1316983844        3.0666563225        2.4384163856
 N          3.9457251508        4.0330966824        3.3729730169
 H          4.5291971391        3.2623433178        3.1017173336
 H          4.3892575556        4.8541148785        3.7417406045
 N          1.9498413412        5.1558642041        3.2753899728
 H          2.3414525557        5.8992497477        3.8238918324
 H          0.9600270204        5.1654493989        3.1066842924
 C         -0.9147219700       -0.3385124393       -3.1084565590
 O         -1.2123407442       -1.3899932677       -2.5340403725
 N          0.3208991836        0.1851665420       -3.0356455242
 H          1.0537247953       -0.3544758629       -2.5694207610
 H          0.5917710635        0.9569373867       -3.6173013508
 N         -1.8347538035        0.3581075549       -3.8142508976
 H         -1.6210283978        1.2326021318       -4.2568135741
 H         -2.7843767072        0.0318144296       -3.8289863968
 C         -3.9858180096       -0.7979887691       -0.2895862371
 O         -3.0658757211       -0.1956836161        0.2588899820
 N         -5.2046427582       -0.9065363725        0.2939454315
 H         -5.3747350917       -0.3960859853        1.1422434978
 H         -5.9920337754       -1.3048080857       -0.1840117766
 N         -3.8460013470       -1.3742706426       -1.5030142802
 H         -4.5478934843       -2.0082517367       -1.8417807113
 H         -2.9002447528       -1.4760956854       -1.8722988737
