 xtb: 6.6.1 (unknown-commit)
          01102418323D

 53 48  0     0  0            999 V2000
    1.0304    0.0350    3.1714 O   0  0  0  0  0  0  0  0  0  0  0  0
   -0.3621   -0.1062    3.1794 C   0  0  0  0  0  0  0  0  0  0  0  0
   -0.6419   -0.4038    4.1929 H   0  0  0  0  0  0  0  0  0  0  0  0
   -0.8465    0.8589    2.9739 H   0  0  0  0  0  0  0  0  0  0  0  0
   -0.8843   -1.0811    2.1216 C   0  0  0  0  0  0  0  0  0  0  0  0
   -0.4465   -0.8048    1.1593 H   0  0  0  0  0  0  0  0  0  0  0  0
   -1.9714   -0.9955    2.0427 H   0  0  0  0  0  0  0  0  0  0  0  0
   -0.5814   -2.5239    2.3414 N   0  0  0  0  0  0  0  0  0  0  0  0
    0.8701   -2.7474    2.4128 C   0  0  0  0  0  0  0  0  0  0  0  0
    1.3276   -2.4252    1.4795 H   0  0  0  0  0  0  0  0  0  0  0  0
    1.0780   -3.8045    2.5683 H   0  0  0  0  0  0  0  0  0  0  0  0
    1.3029   -2.1653    3.2242 H   0  0  0  0  0  0  0  0  0  0  0  0
   -1.1293   -3.2734    1.1958 C   0  0  0  0  0  0  0  0  0  0  0  0
   -0.7026   -2.8922    0.2696 H   0  0  0  0  0  0  0  0  0  0  0  0
   -2.2084   -3.1242    1.1622 H   0  0  0  0  0  0  0  0  0  0  0  0
   -0.9044   -4.3324    1.2989 H   0  0  0  0  0  0  0  0  0  0  0  0
   -1.2341   -3.0071    3.5670 C   0  0  0  0  0  0  0  0  0  0  0  0
   -0.8033   -2.5310    4.4443 H   0  0  0  0  0  0  0  0  0  0  0  0
   -1.1023   -4.0840    3.6570 H   0  0  0  0  0  0  0  0  0  0  0  0
   -2.2983   -2.7821    3.5159 H   0  0  0  0  0  0  0  0  0  0  0  0
    1.2914    0.3320    2.2611 H   0  0  0  0  0  0  0  0  0  0  0  0
    0.1646   -0.2310   -1.4778 C   0  0  0  0  0  0  0  0  0  0  0  0
   -0.4595   -1.1433   -0.9367 O   0  0  0  0  0  0  0  0  0  0  0  0
   -0.3862    0.9773   -1.7309 N   0  0  0  0  0  0  0  0  0  0  0  0
   -1.2491    1.2099   -1.2712 H   0  0  0  0  0  0  0  0  0  0  0  0
    0.2297    1.7302   -2.0018 H   0  0  0  0  0  0  0  0  0  0  0  0
    1.4138   -0.3998   -1.9824 N   0  0  0  0  0  0  0  0  0  0  0  0
    1.9535    0.4434   -2.1289 H   0  0  0  0  0  0  0  0  0  0  0  0
    1.9207   -1.2116   -1.6729 H   0  0  0  0  0  0  0  0  0  0  0  0
    2.2891    2.1007    0.9765 C   0  0  0  0  0  0  0  0  0  0  0  0
    1.6647    1.0576    0.7753 O   0  0  0  0  0  0  0  0  0  0  0  0
    2.5459    2.5411    2.2323 N   0  0  0  0  0  0  0  0  0  0  0  0
    2.3055    1.9481    3.0101 H   0  0  0  0  0  0  0  0  0  0  0  0
    3.1449    3.3280    2.4029 H   0  0  0  0  0  0  0  0  0  0  0  0
    2.7504    2.8711   -0.0272 N   0  0  0  0  0  0  0  0  0  0  0  0
    3.1825    3.7569    0.1621 H   0  0  0  0  0  0  0  0  0  0  0  0
    2.5017    2.6589   -0.9839 H   0  0  0  0  0  0  0  0  0  0  0  0
    2.1741    2.3670   -4.0092 C   0  0  0  0  0  0  0  0  0  0  0  0
    2.0184    2.3438   -2.7890 O   0  0  0  0  0  0  0  0  0  0  0  0
    1.7514    1.3535   -4.7940 N   0  0  0  0  0  0  0  0  0  0  0  0
    1.3139    0.5581   -4.3606 H   0  0  0  0  0  0  0  0  0  0  0  0
    1.8785    1.3552   -5.7890 H   0  0  0  0  0  0  0  0  0  0  0  0
    2.7739    3.4024   -4.6317 N   0  0  0  0  0  0  0  0  0  0  0  0
    2.8943    3.4365   -5.6271 H   0  0  0  0  0  0  0  0  0  0  0  0
    3.0894    4.1822   -4.0834 H   0  0  0  0  0  0  0  0  0  0  0  0
   -4.1473   -1.2645    0.2145 C   0  0  0  0  0  0  0  0  0  0  0  0
   -3.7303   -1.6987    1.2819 O   0  0  0  0  0  0  0  0  0  0  0  0
   -5.4766   -1.1977   -0.0500 N   0  0  0  0  0  0  0  0  0  0  0  0
   -6.1152   -1.4114    0.6954 H   0  0  0  0  0  0  0  0  0  0  0  0
   -5.8377   -0.7339   -0.8634 H   0  0  0  0  0  0  0  0  0  0  0  0
   -3.3264   -0.8048   -0.7614 N   0  0  0  0  0  0  0  0  0  0  0  0
   -3.7040   -0.6370   -1.6776 H   0  0  0  0  0  0  0  0  0  0  0  0
   -2.3284   -1.0080   -0.7171 H   0  0  0  0  0  0  0  0  0  0  0  0
  1  2  1  0  0  0  0
  2  3  1  0  0  0  0
  2  4  1  0  0  0  0
  2  5  1  0  0  0  0
  5  6  1  0  0  0  0
  5  7  1  0  0  0  0
  5  8  1  0  0  0  0
  8  9  1  0  0  0  0
  9 10  1  0  0  0  0
  9 11  1  0  0  0  0
  9 12  1  0  0  0  0
  8 13  1  0  0  0  0
 13 14  1  0  0  0  0
 13 15  1  0  0  0  0
 13 16  1  0  0  0  0
  8 17  1  0  0  0  0
 17 18  1  0  0  0  0
 17 19  1  0  0  0  0
 17 20  1  0  0  0  0
  1 21  1  0  0  0  0
 22 23  2  0  0  0  0
 22 24  4  0  0  0  0
 24 25  1  0  0  0  0
 24 26  1  0  0  0  0
 22 27  4  0  0  0  0
 27 28  1  0  0  0  0
 27 29  1  0  0  0  0
 30 31  2  0  0  0  0
 30 32  4  0  0  0  0
 32 33  1  0  0  0  0
 32 34  1  0  0  0  0
 30 35  4  0  0  0  0
 35 36  1  0  0  0  0
 35 37  1  0  0  0  0
 38 39  4  0  0  0  0
 38 40  4  0  0  0  0
 40 41  1  0  0  0  0
 40 42  1  0  0  0  0
 38 43  4  0  0  0  0
 43 44  1  0  0  0  0
 43 45  1  0  0  0  0
 46 47  2  0  0  0  0
 46 48  4  0  0  0  0
 48 49  1  0  0  0  0
 48 50  1  0  0  0  0
 46 51  4  0  0  0  0
 51 52  1  0  0  0  0
 51 53  1  0  0  0  0
M  CHG  1   1   1
M  END
