 xtb: 6.6.1 (unknown-commit)
          01102418333D

 53 48  0     0  0            999 V2000
    0.7708   -0.5792    2.7594 O   0  0  0  0  0  0  0  0  0  0  0  0
   -0.6187   -0.7010    2.6561 C   0  0  0  0  0  0  0  0  0  0  0  0
   -0.9307   -1.3890    3.4458 H   0  0  0  0  0  0  0  0  0  0  0  0
   -1.1150    0.2621    2.8328 H   0  0  0  0  0  0  0  0  0  0  0  0
   -1.0992   -1.1553    1.2720 C   0  0  0  0  0  0  0  0  0  0  0  0
   -0.6983   -0.4625    0.5276 H   0  0  0  0  0  0  0  0  0  0  0  0
   -2.1867   -1.0853    1.2577 H   0  0  0  0  0  0  0  0  0  0  0  0
   -0.7172   -2.5304    0.8443 N   0  0  0  0  0  0  0  0  0  0  0  0
    0.7421   -2.6291    0.6784 C   0  0  0  0  0  0  0  0  0  0  0  0
    1.0700   -1.9905   -0.1421 H   0  0  0  0  0  0  0  0  0  0  0  0
    1.0209   -3.6558    0.4498 H   0  0  0  0  0  0  0  0  0  0  0  0
    1.2373   -2.3092    1.5934 H   0  0  0  0  0  0  0  0  0  0  0  0
   -1.3601   -2.7866   -0.4566 C   0  0  0  0  0  0  0  0  0  0  0  0
   -1.1323   -1.9642   -1.1367 H   0  0  0  0  0  0  0  0  0  0  0  0
   -2.4394   -2.8549   -0.3348 H   0  0  0  0  0  0  0  0  0  0  0  0
   -0.9891   -3.7177   -0.8794 H   0  0  0  0  0  0  0  0  0  0  0  0
   -1.1638   -3.5356    1.8205 C   0  0  0  0  0  0  0  0  0  0  0  0
   -0.5856   -3.4501    2.7377 H   0  0  0  0  0  0  0  0  0  0  0  0
   -1.0207   -4.5350    1.4127 H   0  0  0  0  0  0  0  0  0  0  0  0
   -2.2190   -3.3957    2.0498 H   0  0  0  0  0  0  0  0  0  0  0  0
    1.0509    0.0896    2.1049 H   0  0  0  0  0  0  0  0  0  0  0  0
    3.6341   -1.1679   -0.9110 C   0  0  0  0  0  0  0  0  0  0  0  0
    2.6089   -1.4950   -1.5051 O   0  0  0  0  0  0  0  0  0  0  0  0
    3.6854   -0.0790   -0.1128 N   0  0  0  0  0  0  0  0  0  0  0  0
    2.7952    0.3433    0.1622 H   0  0  0  0  0  0  0  0  0  0  0  0
    4.4645    0.0444    0.5100 H   0  0  0  0  0  0  0  0  0  0  0  0
    4.7774   -1.8860   -1.0352 N   0  0  0  0  0  0  0  0  0  0  0  0
    5.6509   -1.5600   -0.6631 H   0  0  0  0  0  0  0  0  0  0  0  0
    4.8028   -2.6099   -1.7317 H   0  0  0  0  0  0  0  0  0  0  0  0
    0.9293    2.2505    0.3041 C   0  0  0  0  0  0  0  0  0  0  0  0
    1.2498    1.1071    0.6370 O   0  0  0  0  0  0  0  0  0  0  0  0
    1.8133    3.0544   -0.3546 N   0  0  0  0  0  0  0  0  0  0  0  0
    2.7759    2.7632   -0.3758 H   0  0  0  0  0  0  0  0  0  0  0  0
    1.6364    4.0400   -0.4377 H   0  0  0  0  0  0  0  0  0  0  0  0
   -0.2861    2.7574    0.5277 N   0  0  0  0  0  0  0  0  0  0  0  0
   -0.5196    3.6813    0.2122 H   0  0  0  0  0  0  0  0  0  0  0  0
   -1.0448    2.1802    0.8973 H   0  0  0  0  0  0  0  0  0  0  0  0
   -0.2077    0.8280   -2.2612 C   0  0  0  0  0  0  0  0  0  0  0  0
   -0.9193    0.0728   -1.5954 O   0  0  0  0  0  0  0  0  0  0  0  0
   -0.6756    2.0383   -2.6836 N   0  0  0  0  0  0  0  0  0  0  0  0
   -1.6618    2.2149   -2.5966 H   0  0  0  0  0  0  0  0  0  0  0  0
   -0.1792    2.5555   -3.3872 H   0  0  0  0  0  0  0  0  0  0  0  0
    1.0520    0.5291   -2.5910 N   0  0  0  0  0  0  0  0  0  0  0  0
    1.6228    1.1940   -3.0805 H   0  0  0  0  0  0  0  0  0  0  0  0
    1.5166   -0.2877   -2.1862 H   0  0  0  0  0  0  0  0  0  0  0  0
   -3.5685    1.3869    0.5471 C   0  0  0  0  0  0  0  0  0  0  0  0
   -2.6264    1.4865    1.3266 O   0  0  0  0  0  0  0  0  0  0  0  0
   -4.8483    1.5968    0.9551 N   0  0  0  0  0  0  0  0  0  0  0  0
   -4.9809    1.9965    1.8682 H   0  0  0  0  0  0  0  0  0  0  0  0
   -5.6008    1.6891    0.2963 H   0  0  0  0  0  0  0  0  0  0  0  0
   -3.4000    1.0532   -0.7520 N   0  0  0  0  0  0  0  0  0  0  0  0
   -4.1985    0.8230   -1.3169 H   0  0  0  0  0  0  0  0  0  0  0  0
   -2.4889    0.6834   -1.0423 H   0  0  0  0  0  0  0  0  0  0  0  0
  1  2  1  0  0  0  0
  2  3  1  0  0  0  0
  2  4  1  0  0  0  0
  2  5  1  0  0  0  0
  5  6  1  0  0  0  0
  5  7  1  0  0  0  0
  5  8  1  0  0  0  0
  8  9  1  0  0  0  0
  9 10  1  0  0  0  0
  9 11  1  0  0  0  0
  9 12  1  0  0  0  0
  8 13  1  0  0  0  0
 13 14  1  0  0  0  0
 13 15  1  0  0  0  0
 13 16  1  0  0  0  0
  8 17  1  0  0  0  0
 17 18  1  0  0  0  0
 17 19  1  0  0  0  0
 17 20  1  0  0  0  0
  1 21  1  0  0  0  0
 22 23  2  0  0  0  0
 22 24  4  0  0  0  0
 24 25  1  0  0  0  0
 24 26  1  0  0  0  0
 22 27  4  0  0  0  0
 27 28  1  0  0  0  0
 27 29  1  0  0  0  0
 30 31  4  0  0  0  0
 30 32  1  0  0  0  0
 32 33  1  0  0  0  0
 32 34  1  0  0  0  0
 30 35  4  0  0  0  0
 35 36  1  0  0  0  0
 35 37  1  0  0  0  0
 38 39  4  0  0  0  0
 38 40  1  0  0  0  0
 40 41  1  0  0  0  0
 40 42  1  0  0  0  0
 38 43  4  0  0  0  0
 43 44  1  0  0  0  0
 43 45  1  0  0  0  0
 46 47  2  0  0  0  0
 46 48  1  0  0  0  0
 48 49  1  0  0  0  0
 48 50  1  0  0  0  0
 46 51  4  0  0  0  0
 51 52  1  0  0  0  0
 51 53  1  0  0  0  0
M  CHG  1   1   1
M  END
