 xtb: 6.6.1 (unknown-commit)
          01102418333D

 53 48  0     0  0            999 V2000
    2.4046   -0.5311    1.1275 O   0  0  0  0  0  0  0  0  0  0  0  0
    1.4527   -1.3428    1.7623 C   0  0  0  0  0  0  0  0  0  0  0  0
    1.2340   -2.2228    1.1436 H   0  0  0  0  0  0  0  0  0  0  0  0
    1.9208   -1.6685    2.6947 H   0  0  0  0  0  0  0  0  0  0  0  0
    0.1879   -0.5099    2.0231 C   0  0  0  0  0  0  0  0  0  0  0  0
   -0.3284   -0.3378    1.0754 H   0  0  0  0  0  0  0  0  0  0  0  0
    0.5188    0.4467    2.4401 H   0  0  0  0  0  0  0  0  0  0  0  0
   -0.8056   -1.0651    2.9766 N   0  0  0  0  0  0  0  0  0  0  0  0
   -1.8517   -0.0396    3.1416 C   0  0  0  0  0  0  0  0  0  0  0  0
   -2.6225   -0.3977    3.8208 H   0  0  0  0  0  0  0  0  0  0  0  0
   -2.2975    0.1679    2.1696 H   0  0  0  0  0  0  0  0  0  0  0  0
   -1.4039    0.8651    3.5477 H   0  0  0  0  0  0  0  0  0  0  0  0
   -0.1947   -1.3224    4.2906 C   0  0  0  0  0  0  0  0  0  0  0  0
    0.3495   -0.4298    4.6031 H   0  0  0  0  0  0  0  0  0  0  0  0
    0.4855   -2.1685    4.2406 H   0  0  0  0  0  0  0  0  0  0  0  0
   -0.9708   -1.5454    5.0201 H   0  0  0  0  0  0  0  0  0  0  0  0
   -1.4153   -2.2872    2.4325 C   0  0  0  0  0  0  0  0  0  0  0  0
   -0.6577   -3.0524    2.2827 H   0  0  0  0  0  0  0  0  0  0  0  0
   -1.8873   -2.0468    1.4800 H   0  0  0  0  0  0  0  0  0  0  0  0
   -2.1683   -2.6659    3.1211 H   0  0  0  0  0  0  0  0  0  0  0  0
    2.0217   -0.2570    0.2548 H   0  0  0  0  0  0  0  0  0  0  0  0
    2.0475    0.0355   -2.2351 C   0  0  0  0  0  0  0  0  0  0  0  0
    1.3118    0.0183   -1.2426 O   0  0  0  0  0  0  0  0  0  0  0  0
    1.5790    0.1835   -3.4825 N   0  0  0  0  0  0  0  0  0  0  0  0
    0.5891    0.3115   -3.6636 H   0  0  0  0  0  0  0  0  0  0  0  0
    2.2065    0.2383   -4.2638 H   0  0  0  0  0  0  0  0  0  0  0  0
    3.3869   -0.1044   -2.1004 N   0  0  0  0  0  0  0  0  0  0  0  0
    4.0060   -0.1251   -2.8894 H   0  0  0  0  0  0  0  0  0  0  0  0
    3.7696   -0.2572   -1.1836 H   0  0  0  0  0  0  0  0  0  0  0  0
    2.2242    1.9851    3.9824 C   0  0  0  0  0  0  0  0  0  0  0  0
    1.1187    1.4660    4.0943 O   0  0  0  0  0  0  0  0  0  0  0  0
    3.0735    1.6771    2.9781 N   0  0  0  0  0  0  0  0  0  0  0  0
    2.8567    0.9215    2.3373 H   0  0  0  0  0  0  0  0  0  0  0  0
    4.0049    2.0499    2.9614 H   0  0  0  0  0  0  0  0  0  0  0  0
    2.6703    2.9025    4.8777 N   0  0  0  0  0  0  0  0  0  0  0  0
    3.5081    3.4326    4.7212 H   0  0  0  0  0  0  0  0  0  0  0  0
    2.0204    3.2425    5.5642 H   0  0  0  0  0  0  0  0  0  0  0  0
   -1.8805   -0.4116   -4.9773 C   0  0  0  0  0  0  0  0  0  0  0  0
   -1.1744    0.3855   -4.3666 O   0  0  0  0  0  0  0  0  0  0  0  0
   -1.6148   -0.7564   -6.2614 N   0  0  0  0  0  0  0  0  0  0  0  0
   -0.9150   -0.2289   -6.7532 H   0  0  0  0  0  0  0  0  0  0  0  0
   -2.2669   -1.2883   -6.8090 H   0  0  0  0  0  0  0  0  0  0  0  0
   -2.9488   -1.0116   -4.4102 N   0  0  0  0  0  0  0  0  0  0  0  0
   -3.4833   -1.7043   -4.9014 H   0  0  0  0  0  0  0  0  0  0  0  0
   -3.1529   -0.8464   -3.4333 H   0  0  0  0  0  0  0  0  0  0  0  0
   -2.4331    0.1252   -0.9725 C   0  0  0  0  0  0  0  0  0  0  0  0
   -2.3582   -0.4418    0.1119 O   0  0  0  0  0  0  0  0  0  0  0  0
   -3.6273    0.1681   -1.6772 N   0  0  0  0  0  0  0  0  0  0  0  0
   -4.4430   -0.0698   -1.1321 H   0  0  0  0  0  0  0  0  0  0  0  0
   -3.7573    0.9617   -2.2865 H   0  0  0  0  0  0  0  0  0  0  0  0
   -1.4029    0.7319   -1.5758 N   0  0  0  0  0  0  0  0  0  0  0  0
   -1.4636    0.9315   -2.5690 H   0  0  0  0  0  0  0  0  0  0  0  0
   -0.4604    0.5301   -1.2499 H   0  0  0  0  0  0  0  0  0  0  0  0
  1  2  1  0  0  0  0
  2  3  1  0  0  0  0
  2  4  1  0  0  0  0
  2  5  1  0  0  0  0
  5  6  1  0  0  0  0
  5  7  1  0  0  0  0
  5  8  1  0  0  0  0
  8  9  1  0  0  0  0
  9 10  1  0  0  0  0
  9 11  1  0  0  0  0
  9 12  1  0  0  0  0
  8 13  1  0  0  0  0
 13 14  1  0  0  0  0
 13 15  1  0  0  0  0
 13 16  1  0  0  0  0
  8 17  1  0  0  0  0
 17 18  1  0  0  0  0
 17 19  1  0  0  0  0
 17 20  1  0  0  0  0
  1 21  1  0  0  0  0
 22 23  4  0  0  0  0
 22 24  4  0  0  0  0
 24 25  1  0  0  0  0
 24 26  1  0  0  0  0
 22 27  4  0  0  0  0
 27 28  1  0  0  0  0
 27 29  1  0  0  0  0
 30 31  2  0  0  0  0
 30 32  4  0  0  0  0
 32 33  1  0  0  0  0
 32 34  1  0  0  0  0
 30 35  1  0  0  0  0
 35 36  1  0  0  0  0
 35 37  1  0  0  0  0
 38 39  2  0  0  0  0
 38 40  4  0  0  0  0
 40 41  1  0  0  0  0
 40 42  1  0  0  0  0
 38 43  4  0  0  0  0
 43 44  1  0  0  0  0
 43 45  1  0  0  0  0
 46 47  2  0  0  0  0
 46 48  1  0  0  0  0
 48 49  1  0  0  0  0
 48 50  1  0  0  0  0
 46 51  4  0  0  0  0
 51 52  1  0  0  0  0
 51 53  1  0  0  0  0
M  CHG  1   1   1
M  END
