  53

 O         -1.7403847516       -2.5743505517        0.9461921179
 C         -0.7235903366       -2.8374946252        1.8680110813
 H         -1.1962288988       -2.7985902101        2.8535365159
 H         -0.3327690028       -3.8573624333        1.7290359267
 C          0.4920560891       -1.9064316262        1.7857196091
 H          0.9103390657       -1.9590855502        0.7747669647
 H          1.2461624788       -2.2752870503        2.4842383828
 N          0.2635706868       -0.4666697450        2.0788070676
 C          1.5240230898        0.2502020786        1.8081525544
 H          2.2865584586       -0.0544943407        2.5217011521
 H          1.3447021622        1.3207325100        1.9004453370
 H          1.8727314825        0.0129369406        0.8054742763
 C         -0.1166804622       -0.2296784394        3.4786671483
 H          0.6407835861       -0.6265665689        4.1520635131
 H         -1.0722484650       -0.6999954298        3.6981212287
 H         -0.2075264597        0.8457892405        3.6287517021
 C         -0.7878146574        0.0915227706        1.2135734188
 H         -0.5627079261       -0.1302839705        0.1752465231
 H         -0.8199080230        1.1707489922        1.3596020163
 H         -1.7525650320       -0.3430237145        1.4620945029
 H         -1.3633862700       -2.4248960639        0.0596050345
 C          2.3540612029       -2.6604872369       -1.4612224400
 O          2.3551435710       -1.6724380065       -0.7321596028
 N          1.2083552076       -3.1931181258       -1.9459735033
 H          0.3571774674       -2.6489692824       -1.8661822463
 H          1.2388576902       -3.8994406316       -2.6592947510
 N          3.5012430276       -3.2921755877       -1.8057736875
 H          3.5026965916       -4.1566813208       -2.3154221726
 H          4.3578206593       -2.9962165516       -1.3726556971
 C          0.6460654736        1.7001368310       -1.4938119474
 O         -0.5262313652        2.0729044768       -1.3722079504
 N          1.6793383420        2.5094354651       -1.1608103767
 H          1.4833836528        3.4716143110       -0.9458483139
 H          2.6238202974        2.2592499885       -1.3914381928
 N          0.9635182781        0.4749382620       -1.9493490235
 H          1.8882347833        0.1001822626       -1.8068843498
 H          0.2230546967       -0.2212268263       -1.9830491666
 C         -0.4756908291        3.9645072221        1.8207592021
 O         -0.0871332219        2.8738570678        2.2268200561
 N         -0.7116937607        4.2113785178        0.5127687807
 H         -0.7425181568        3.4313524306       -0.1431074853
 H         -1.1827476516        5.0554468482        0.2392354456
 N         -0.6776453946        5.0041899678        2.6689672197
 H         -0.8835766573        5.9288777845        2.3377585872
 H         -0.3963707050        4.8982905472        3.6272596763
 C         -2.2091322591       -1.0858443554       -2.0179017377
 O         -1.1177755844       -1.4895542679       -1.5791081879
 N         -3.1716126743       -1.9640519989       -2.3732779603
 H         -3.0372155824       -2.9394995746       -2.1741542909
 H         -4.0906377980       -1.6605929550       -2.6388821080
 N         -2.4698089630        0.2145682992       -2.1710468684
 H         -3.3511292656        0.5253558874       -2.5367809008
 H         -1.7778221664        0.9243521507       -1.9072345807
