  53

 O          1.2769106123        0.2562492480        1.0117593833
 C          1.2499300753       -0.7839246608        1.9486834579
 H          2.2534222274       -1.2281246319        2.0392958419
 H          0.9930168027       -0.3400088824        2.9142328175
 C          0.3044450614       -1.9335940401        1.5813732849
 H          0.5258581183       -2.7821648071        2.2320681957
 H          0.5175168420       -2.2101409880        0.5448312614
 N         -1.1497236226       -1.6470792057        1.6785194084
 C         -1.5471180571       -1.3362906493        3.0614127096
 H         -1.1976876077       -2.1107786172        3.7402246144
 H         -2.6350381227       -1.2774974310        3.0919812747
 H         -1.1542577812       -0.3667657902        3.3577621534
 C         -1.8918682137       -2.8402743308        1.2377033030
 H         -1.6469909463       -3.6948847788        1.8658404102
 H         -1.6421314732       -3.0722040155        0.2042907353
 H         -2.9588493343       -2.6337188574        1.3129044365
 C         -1.5295783642       -0.5240919565        0.8030599350
 H         -1.1399092956        0.4051260775        1.2107165842
 H         -2.6159893232       -0.4615072071        0.7815375573
 H         -1.1341367027       -0.6835248231       -0.1974489988
 H          1.1882179416       -0.1512245673        0.1067551922
 C          1.7109572047       -0.8238467451       -2.2068807403
 O          0.9157086617       -1.0369241614       -1.2804489001
 N          1.6002779356       -1.4224480807       -3.4035260686
 H          0.8505086667       -2.0657782493       -3.5764126667
 H          2.2739229285       -1.2059803520       -4.1240425964
 N          2.7599083907        0.0095895239       -2.0812141333
 H          3.3562727871        0.1661049565       -2.8799058445
 H          2.8890672562        0.5380711852       -1.2375404818
 C         -0.6951326231        2.7774487993        2.8347857266
 O         -1.3692828091        1.7581370575        2.9508776244
 N          0.4631850312        2.7957679539        2.1483216671
 H          0.7814224265        1.9543524524        1.6810147159
 H          0.9907533505        3.6402825204        2.0284778647
 N         -1.0922695299        3.9589470308        3.3744825399
 H         -0.4852675243        4.7579677194        3.3966487850
 H         -1.8819530343        3.9548533614        3.9948848529
 C          4.6105742270       -0.1315604146       -5.7168412778
 O          3.8509918938       -0.2460695244       -4.7642751689
 N          5.9329607111        0.1180276804       -5.5588020244
 H          6.3154635425        0.0849828402       -4.6304651822
 H          6.5729567614        0.0886527232       -6.3314633153
 N          4.1838497518       -0.2481956304       -6.9979230476
 H          4.7802641811       -0.0290943212       -7.7750098269
 H          3.1948466706       -0.3003449211       -7.1668962474
 C         -4.9271585371        0.1862537487        2.4074751150
 O         -4.3481344326       -0.8222245022        2.0200897362
 N         -4.2739764929        1.3168141011        2.7544975524
 H         -3.2613324635        1.3427961546        2.7959947021
 H         -4.7763703484        2.0935337255        3.1434642754
 N         -6.2797632397        0.2261550521        2.5200128275
 H         -6.7754411306        1.0762901374        2.7157516339
 H         -6.8037183087       -0.5582173727        2.1752616772
