 xtb: 6.6.1 (unknown-commit)
          01102418323D

 53 48  0     0  0            999 V2000
    1.2769    0.2562    1.0118 O   0  0  0  0  0  0  0  0  0  0  0  0
    1.2499   -0.7839    1.9487 C   0  0  0  0  0  0  0  0  0  0  0  0
    2.2534   -1.2281    2.0393 H   0  0  0  0  0  0  0  0  0  0  0  0
    0.9930   -0.3400    2.9142 H   0  0  0  0  0  0  0  0  0  0  0  0
    0.3044   -1.9336    1.5814 C   0  0  0  0  0  0  0  0  0  0  0  0
    0.5259   -2.7822    2.2321 H   0  0  0  0  0  0  0  0  0  0  0  0
    0.5175   -2.2101    0.5448 H   0  0  0  0  0  0  0  0  0  0  0  0
   -1.1497   -1.6471    1.6785 N   0  0  0  0  0  0  0  0  0  0  0  0
   -1.5471   -1.3363    3.0614 C   0  0  0  0  0  0  0  0  0  0  0  0
   -1.1977   -2.1108    3.7402 H   0  0  0  0  0  0  0  0  0  0  0  0
   -2.6350   -1.2775    3.0920 H   0  0  0  0  0  0  0  0  0  0  0  0
   -1.1542   -0.3668    3.3578 H   0  0  0  0  0  0  0  0  0  0  0  0
   -1.8919   -2.8403    1.2377 C   0  0  0  0  0  0  0  0  0  0  0  0
   -1.6470   -3.6949    1.8659 H   0  0  0  0  0  0  0  0  0  0  0  0
   -1.6421   -3.0722    0.2043 H   0  0  0  0  0  0  0  0  0  0  0  0
   -2.9589   -2.6337    1.3129 H   0  0  0  0  0  0  0  0  0  0  0  0
   -1.5296   -0.5241    0.8031 C   0  0  0  0  0  0  0  0  0  0  0  0
   -1.1399    0.4051    1.2107 H   0  0  0  0  0  0  0  0  0  0  0  0
   -2.6160   -0.4615    0.7815 H   0  0  0  0  0  0  0  0  0  0  0  0
   -1.1341   -0.6835   -0.1974 H   0  0  0  0  0  0  0  0  0  0  0  0
    1.1882   -0.1512    0.1068 H   0  0  0  0  0  0  0  0  0  0  0  0
    1.7109   -0.8239   -2.2069 C   0  0  0  0  0  0  0  0  0  0  0  0
    0.9157   -1.0369   -1.2805 O   0  0  0  0  0  0  0  0  0  0  0  0
    1.6003   -1.4225   -3.4035 N   0  0  0  0  0  0  0  0  0  0  0  0
    0.8505   -2.0658   -3.5764 H   0  0  0  0  0  0  0  0  0  0  0  0
    2.2739   -1.2060   -4.1240 H   0  0  0  0  0  0  0  0  0  0  0  0
    2.7599    0.0096   -2.0812 N   0  0  0  0  0  0  0  0  0  0  0  0
    3.3563    0.1661   -2.8799 H   0  0  0  0  0  0  0  0  0  0  0  0
    2.8891    0.5381   -1.2376 H   0  0  0  0  0  0  0  0  0  0  0  0
   -0.6951    2.7775    2.8348 C   0  0  0  0  0  0  0  0  0  0  0  0
   -1.3693    1.7581    2.9509 O   0  0  0  0  0  0  0  0  0  0  0  0
    0.4632    2.7958    2.1483 N   0  0  0  0  0  0  0  0  0  0  0  0
    0.7814    1.9544    1.6810 H   0  0  0  0  0  0  0  0  0  0  0  0
    0.9908    3.6403    2.0285 H   0  0  0  0  0  0  0  0  0  0  0  0
   -1.0922    3.9590    3.3745 N   0  0  0  0  0  0  0  0  0  0  0  0
   -0.4852    4.7580    3.3966 H   0  0  0  0  0  0  0  0  0  0  0  0
   -1.8819    3.9549    3.9949 H   0  0  0  0  0  0  0  0  0  0  0  0
    4.6106   -0.1316   -5.7169 C   0  0  0  0  0  0  0  0  0  0  0  0
    3.8510   -0.2461   -4.7643 O   0  0  0  0  0  0  0  0  0  0  0  0
    5.9329    0.1180   -5.5588 N   0  0  0  0  0  0  0  0  0  0  0  0
    6.3154    0.0849   -4.6305 H   0  0  0  0  0  0  0  0  0  0  0  0
    6.5729    0.0886   -6.3315 H   0  0  0  0  0  0  0  0  0  0  0  0
    4.1838   -0.2482   -6.9979 N   0  0  0  0  0  0  0  0  0  0  0  0
    4.7802   -0.0291   -7.7750 H   0  0  0  0  0  0  0  0  0  0  0  0
    3.1948   -0.3004   -7.1669 H   0  0  0  0  0  0  0  0  0  0  0  0
   -4.9271    0.1863    2.4075 C   0  0  0  0  0  0  0  0  0  0  0  0
   -4.3481   -0.8222    2.0201 O   0  0  0  0  0  0  0  0  0  0  0  0
   -4.2740    1.3168    2.7545 N   0  0  0  0  0  0  0  0  0  0  0  0
   -3.2613    1.3428    2.7960 H   0  0  0  0  0  0  0  0  0  0  0  0
   -4.7763    2.0936    3.1435 H   0  0  0  0  0  0  0  0  0  0  0  0
   -6.2798    0.2262    2.5200 N   0  0  0  0  0  0  0  0  0  0  0  0
   -6.7754    1.0763    2.7158 H   0  0  0  0  0  0  0  0  0  0  0  0
   -6.8037   -0.5582    2.1753 H   0  0  0  0  0  0  0  0  0  0  0  0
  1  2  1  0  0  0  0
  2  3  1  0  0  0  0
  2  4  1  0  0  0  0
  2  5  1  0  0  0  0
  5  6  1  0  0  0  0
  5  7  1  0  0  0  0
  5  8  1  0  0  0  0
  8  9  1  0  0  0  0
  9 10  1  0  0  0  0
  9 11  1  0  0  0  0
  9 12  1  0  0  0  0
  8 13  1  0  0  0  0
 13 14  1  0  0  0  0
 13 15  1  0  0  0  0
 13 16  1  0  0  0  0
  8 17  1  0  0  0  0
 17 18  1  0  0  0  0
 17 19  1  0  0  0  0
 17 20  1  0  0  0  0
  1 21  1  0  0  0  0
 22 23  4  0  0  0  0
 22 24  4  0  0  0  0
 24 25  1  0  0  0  0
 24 26  1  0  0  0  0
 22 27  4  0  0  0  0
 27 28  1  0  0  0  0
 27 29  1  0  0  0  0
 30 31  2  0  0  0  0
 30 32  4  0  0  0  0
 32 33  1  0  0  0  0
 32 34  1  0  0  0  0
 30 35  1  0  0  0  0
 35 36  1  0  0  0  0
 35 37  1  0  0  0  0
 38 39  2  0  0  0  0
 38 40  4  0  0  0  0
 40 41  1  0  0  0  0
 40 42  1  0  0  0  0
 38 43  4  0  0  0  0
 43 44  1  0  0  0  0
 43 45  1  0  0  0  0
 46 47  2  0  0  0  0
 46 48  4  0  0  0  0
 48 49  1  0  0  0  0
 48 50  1  0  0  0  0
 46 51  1  0  0  0  0
 51 52  1  0  0  0  0
 51 53  1  0  0  0  0
M  CHG  1   1   1
M  END
