  53

 O         -0.9893708739       -0.6353753020       -2.6331947187
 C          0.3407860542       -0.4153675032       -2.1958008109
 H          1.0473772689       -0.6177885337       -3.0108236433
 H          0.4668188694        0.6280294283       -1.8827703362
 C          0.6352664240       -1.2514873728       -0.9576936952
 H         -0.2015320890       -1.1392462516       -0.2681504594
 H          1.5393288225       -0.8591334305       -0.4883129796
 N          0.8330710631       -2.7142499752       -1.1323523516
 C          1.0615340703       -3.2669715267        0.2162820644
 H          1.9294295711       -2.7856205362        0.6633873205
 H          1.2306956388       -4.3396621476        0.1545699059
 H          0.1799761718       -3.0783561222        0.8276776904
 C          2.0118547749       -2.9894738556       -1.9643511150
 H          1.8521376864       -2.6455674848       -2.9834913869
 H          2.2071326641       -4.0600675238       -1.9894560695
 H          2.8762071602       -2.4800889326       -1.5404392107
 C         -0.3710794339       -3.3390903731       -1.7006815488
 H         -0.5944141601       -2.9165031104       -2.6762953395
 H         -1.2088899305       -3.1401691479       -1.0310097385
 H         -0.2267580603       -4.4133135465       -1.7927039980
 H         -1.2228593916        0.0170777633       -3.3009347024
 C          3.9249795368        0.2073844337        0.3607897296
 O          3.2514632919       -0.8057372504        0.5747338021
 N          3.3516658520        1.3930368288        0.0957752106
 H          2.3366426542        1.4863555251        0.1951730512
 H          3.9030278940        2.2266590540        0.0052623043
 N          5.2767810832        0.1519742176        0.3174724038
 H          5.8400113779        0.9795385464        0.2456122554
 H          5.7281274989       -0.7056303761        0.5819475536
 C         -2.4405843104        3.3972272585       -0.1920946983
 O         -2.8827747103        2.5140721948        0.5456804434
 N         -3.2366629908        4.3961991346       -0.6371169762
 H         -4.1852189301        4.4331922014       -0.3093329441
 H         -2.8916899640        5.1550816436       -1.1951855415
 N         -1.1700313163        3.3838979327       -0.6394000179
 H         -0.7922827842        4.1791629412       -1.1220110240
 H         -0.5128616843        2.7123352622       -0.2324641295
 C         -2.5257568667       -1.0988118343        0.8833340262
 O         -1.8071413078       -2.0906676599        0.7838113486
 N         -2.7503739071       -0.2536716638       -0.1418781644
 H         -2.2432009327       -0.4077364307       -1.0018442167
 H         -3.0832865390        0.6844993049        0.0422868166
 N         -3.1183973807       -0.7598857307        2.0659496677
 H         -3.8430726149       -0.0619309935        2.0545655634
 H         -3.2040540506       -1.4901935131        2.7531269567
 C          0.2054014913        0.9558394925        1.5597004133
 O          0.5754935946        1.4865424678        0.4977638911
 N         -0.9251161821        1.3279749511        2.1805103112
 H         -1.6254674729        1.8544378033        1.6545921612
 H         -1.2662028974        0.7880968202        2.9566137141
 N          0.9488960776        0.0001546430        2.1497392385
 H          0.6632478537       -0.4208869157        3.0139812400
 H          1.8139067146       -0.3065234579        1.7182036787
