  53

 O         -0.8412873656        1.1113660704       -1.3162452809
 C         -1.0098294997        0.2572990474       -2.4052630132
 H         -1.9264072769        0.5728646873       -2.9125532557
 H         -0.1818257007        0.3667819466       -3.1208583514
 C         -1.0645610224       -1.2354556455       -2.0435548459
 H         -0.1180039062       -1.5385539789       -1.5860527257
 H         -1.2025699747       -1.7935257406       -2.9718166636
 N         -2.1348079367       -1.6416102983       -1.0939475853
 C         -1.8160095434       -1.1813293835        0.2694746535
 H         -2.6041271346       -1.5168970357        0.9403040301
 H         -1.7483417615       -0.0964560258        0.2849489704
 H         -0.8610751658       -1.6108174943        0.5678952957
 C         -2.1911121982       -3.1135036666       -1.0672244451
 H         -2.9449033168       -3.4180825975       -0.3432903447
 H         -1.2147460407       -3.4960448040       -0.7743734962
 H         -2.4575940229       -3.5001836582       -2.0486379561
 C         -3.4527130470       -1.1176308646       -1.4792650338
 H         -3.6870101219       -1.4022371992       -2.5034123044
 H         -3.4641052583       -0.0342742949       -1.3896461130
 H         -4.1969308120       -1.5382014368       -0.8033310300
 H          0.0437658505        0.9173345844       -0.9082487460
 C          1.9941685590       -2.9438321573       -0.0366504420
 O          0.7812281477       -2.9164431072       -0.2095198938
 N          2.7280745503       -1.8266930523        0.1368534049
 H          2.2860401714       -0.9187770431       -0.0147673596
 H          3.7308555646       -1.8759382109        0.1229115806
 N          2.6808863907       -4.1200524284       -0.0174815336
 H          3.6358431064       -4.1631612997        0.2892233232
 H          2.1485566250       -4.9717446895        0.0049788891
 C          4.1844291053        5.8776152817        0.5622204786
 O          3.6261984568        4.7949834592        0.4474302995
 N          3.4925611749        7.0385413265        0.6621711054
 H          2.4951785904        6.9890218551        0.7719208041
 H          3.9458829504        7.9063247051        0.8833082845
 N          5.5342266767        5.9940215395        0.5962091079
 H          5.9884139547        6.8885548868        0.5660780392
 H          6.0878018657        5.1798391054        0.3969141687
 C          2.1566675275        1.8120535356       -0.1438552422
 O          1.5947120882        0.7173706101       -0.3077037657
 N          3.3898421025        1.9176342872        0.3858976984
 H          3.8232772609        1.1139717099        0.8017992859
 H          3.7553026898        2.8417791399        0.5680259054
 N          1.5929990133        2.9700757164       -0.5199151854
 H          2.0754758294        3.8348688461       -0.3250047368
 H          0.6687430984        2.9708521309       -0.9154184894
 C         -5.3536328671       -3.1694611778        1.7927544618
 O         -4.5693805712       -2.7273775076        0.9656910494
 N         -4.9399173587       -3.8759492230        2.8730542525
 H         -3.9686170045       -4.1215520892        2.9415129696
 H         -5.5865462912       -4.3281426939        3.4928191888
 N         -6.6922686270       -2.9871438497        1.6910873002
 H         -7.3237084649       -3.2595944161        2.4217288131
 H         -7.0410624069       -2.3882110572        0.9645224886
