 xtb: 6.6.1 (unknown-commit)
          01102418263D

 53 48  0     0  0            999 V2000
    0.6355    1.2315   -2.6266 O   0  0  0  0  0  0  0  0  0  0  0  0
   -0.5347    0.4880   -2.8070 C   0  0  0  0  0  0  0  0  0  0  0  0
   -1.3547    1.2084   -2.8693 H   0  0  0  0  0  0  0  0  0  0  0  0
   -0.5012   -0.0585   -3.7602 H   0  0  0  0  0  0  0  0  0  0  0  0
   -0.7907   -0.5670   -1.7213 C   0  0  0  0  0  0  0  0  0  0  0  0
    0.0779   -1.2312   -1.6557 H   0  0  0  0  0  0  0  0  0  0  0  0
   -1.6620   -1.1499   -2.0257 H   0  0  0  0  0  0  0  0  0  0  0  0
   -1.0361   -0.0624   -0.3415 N   0  0  0  0  0  0  0  0  0  0  0  0
    0.1889    0.5505    0.1989 C   0  0  0  0  0  0  0  0  0  0  0  0
    0.9773   -0.2007    0.2025 H   0  0  0  0  0  0  0  0  0  0  0  0
    0.0061    0.8947    1.2147 H   0  0  0  0  0  0  0  0  0  0  0  0
    0.4899    1.3872   -0.4273 H   0  0  0  0  0  0  0  0  0  0  0  0
   -1.3760   -1.2243    0.4985 C   0  0  0  0  0  0  0  0  0  0  0  0
   -2.2920   -1.6904    0.1417 H   0  0  0  0  0  0  0  0  0  0  0  0
   -1.5160   -0.9165    1.5355 H   0  0  0  0  0  0  0  0  0  0  0  0
   -0.5593   -1.9425    0.4471 H   0  0  0  0  0  0  0  0  0  0  0  0
   -2.1344    0.9127   -0.3039 C   0  0  0  0  0  0  0  0  0  0  0  0
   -1.8686    1.8009   -0.8715 H   0  0  0  0  0  0  0  0  0  0  0  0
   -2.3286    1.2239    0.7236 H   0  0  0  0  0  0  0  0  0  0  0  0
   -3.0394    0.4759   -0.7214 H   0  0  0  0  0  0  0  0  0  0  0  0
    1.4047    0.6195   -2.7145 H   0  0  0  0  0  0  0  0  0  0  0  0
    2.4749   -2.8531   -0.6182 C   0  0  0  0  0  0  0  0  0  0  0  0
    1.4187   -2.2608   -0.4300 O   0  0  0  0  0  0  0  0  0  0  0  0
    3.2721   -2.5933   -1.6752 N   0  0  0  0  0  0  0  0  0  0  0  0
    3.0611   -1.7905   -2.2591 H   0  0  0  0  0  0  0  0  0  0  0  0
    4.1911   -2.9934   -1.7301 H   0  0  0  0  0  0  0  0  0  0  0  0
    2.9115   -3.8144    0.2379 N   0  0  0  0  0  0  0  0  0  0  0  0
    3.6918   -4.4046    0.0139 H   0  0  0  0  0  0  0  0  0  0  0  0
    2.2833   -4.1242    0.9580 H   0  0  0  0  0  0  0  0  0  0  0  0
   -1.3767    2.7665    2.9611 C   0  0  0  0  0  0  0  0  0  0  0  0
   -2.4167    2.5585    2.3393 O   0  0  0  0  0  0  0  0  0  0  0  0
   -0.5962    1.7515    3.4029 N   0  0  0  0  0  0  0  0  0  0  0  0
   -1.0392    0.8276    3.4600 H   0  0  0  0  0  0  0  0  0  0  0  0
    0.1379    1.9397    4.0634 H   0  0  0  0  0  0  0  0  0  0  0  0
   -0.9174    4.0225    3.1646 N   0  0  0  0  0  0  0  0  0  0  0  0
   -0.0771    4.2154    3.6773 H   0  0  0  0  0  0  0  0  0  0  0  0
   -1.4595    4.7924    2.8158 H   0  0  0  0  0  0  0  0  0  0  0  0
    3.2549    0.2760   -4.3052 C   0  0  0  0  0  0  0  0  0  0  0  0
    2.7408   -0.2994   -3.3450 O   0  0  0  0  0  0  0  0  0  0  0  0
    2.7802    1.4510   -4.7637 N   0  0  0  0  0  0  0  0  0  0  0  0
    2.0266    1.8913   -4.2588 H   0  0  0  0  0  0  0  0  0  0  0  0
    3.2354    1.9611   -5.4980 H   0  0  0  0  0  0  0  0  0  0  0  0
    4.3219   -0.2395   -4.9541 N   0  0  0  0  0  0  0  0  0  0  0  0
    4.6995    0.1859   -5.7807 H   0  0  0  0  0  0  0  0  0  0  0  0
    4.6528   -1.1517   -4.6957 H   0  0  0  0  0  0  0  0  0  0  0  0
   -3.2363   -0.5429    3.7772 C   0  0  0  0  0  0  0  0  0  0  0  0
   -2.0415   -0.6245    3.4873 O   0  0  0  0  0  0  0  0  0  0  0  0
   -4.0013    0.4842    3.3631 N   0  0  0  0  0  0  0  0  0  0  0  0
   -3.5371    1.2877    2.9370 H   0  0  0  0  0  0  0  0  0  0  0  0
   -4.9396    0.6020    3.6995 H   0  0  0  0  0  0  0  0  0  0  0  0
   -3.8502   -1.5162    4.4895 N   0  0  0  0  0  0  0  0  0  0  0  0
   -4.8216   -1.4749    4.7353 H   0  0  0  0  0  0  0  0  0  0  0  0
   -3.3075   -2.3057    4.7892 H   0  0  0  0  0  0  0  0  0  0  0  0
  1  2  1  0  0  0  0
  2  3  1  0  0  0  0
  2  4  1  0  0  0  0
  2  5  1  0  0  0  0
  5  6  1  0  0  0  0
  5  7  1  0  0  0  0
  5  8  1  0  0  0  0
  8  9  1  0  0  0  0
  9 10  1  0  0  0  0
  9 11  1  0  0  0  0
  9 12  1  0  0  0  0
  8 13  1  0  0  0  0
 13 14  1  0  0  0  0
 13 15  1  0  0  0  0
 13 16  1  0  0  0  0
  8 17  1  0  0  0  0
 17 18  1  0  0  0  0
 17 19  1  0  0  0  0
 17 20  1  0  0  0  0
  1 21  1  0  0  0  0
 22 23  2  0  0  0  0
 22 24  4  0  0  0  0
 24 25  1  0  0  0  0
 24 26  1  0  0  0  0
 22 27  1  0  0  0  0
 27 28  1  0  0  0  0
 27 29  1  0  0  0  0
 30 31  2  0  0  0  0
 30 32  4  0  0  0  0
 32 33  1  0  0  0  0
 32 34  1  0  0  0  0
 30 35  4  0  0  0  0
 35 36  1  0  0  0  0
 35 37  1  0  0  0  0
 38 39  4  0  0  0  0
 38 40  4  0  0  0  0
 40 41  1  0  0  0  0
 40 42  1  0  0  0  0
 38 43  4  0  0  0  0
 43 44  1  0  0  0  0
 43 45  1  0  0  0  0
 46 47  4  0  0  0  0
 46 48  4  0  0  0  0
 48 49  1  0  0  0  0
 48 50  1  0  0  0  0
 46 51  4  0  0  0  0
 51 52  1  0  0  0  0
 51 53  1  0  0  0  0
M  CHG  1   1   1
M  END
