 xtb: 6.6.1 (unknown-commit)
          01102418343D

 53 48  0     0  0            999 V2000
    2.2614   -0.5738    1.0717 O   0  0  0  0  0  0  0  0  0  0  0  0
    1.3572   -1.3206    1.8428 C   0  0  0  0  0  0  0  0  0  0  0  0
    1.1272   -2.2696    1.3405 H   0  0  0  0  0  0  0  0  0  0  0  0
    1.8774   -1.5307    2.7810 H   0  0  0  0  0  0  0  0  0  0  0  0
    0.0882   -0.4862    2.0705 C   0  0  0  0  0  0  0  0  0  0  0  0
   -0.4909   -0.4549    1.1433 H   0  0  0  0  0  0  0  0  0  0  0  0
    0.4132    0.5247    2.3382 H   0  0  0  0  0  0  0  0  0  0  0  0
   -0.8313   -0.9346    3.1465 N   0  0  0  0  0  0  0  0  0  0  0  0
   -1.9304    0.0467    3.1952 C   0  0  0  0  0  0  0  0  0  0  0  0
   -2.6494   -0.2347    3.9616 H   0  0  0  0  0  0  0  0  0  0  0  0
   -2.4266    0.0664    2.2256 H   0  0  0  0  0  0  0  0  0  0  0  0
   -1.5229    1.0288    3.4260 H   0  0  0  0  0  0  0  0  0  0  0  0
   -0.1541   -0.9461    4.4532 C   0  0  0  0  0  0  0  0  0  0  0  0
    0.3481    0.0120    4.5965 H   0  0  0  0  0  0  0  0  0  0  0  0
    0.5749   -1.7507    4.5019 H   0  0  0  0  0  0  0  0  0  0  0  0
   -0.8849   -1.0937    5.2457 H   0  0  0  0  0  0  0  0  0  0  0  0
   -1.3885   -2.2587    2.8338 C   0  0  0  0  0  0  0  0  0  0  0  0
   -0.5958   -3.0010    2.7852 H   0  0  0  0  0  0  0  0  0  0  0  0
   -1.8985   -2.2004    1.8717 H   0  0  0  0  0  0  0  0  0  0  0  0
   -2.1012   -2.5531    3.6017 H   0  0  0  0  0  0  0  0  0  0  0  0
    1.8289   -0.3881    0.1974 H   0  0  0  0  0  0  0  0  0  0  0  0
    1.7933   -0.9337   -2.2050 C   0  0  0  0  0  0  0  0  0  0  0  0
    1.1242   -0.3667   -1.3326 O   0  0  0  0  0  0  0  0  0  0  0  0
    1.3638   -1.0747   -3.4666 N   0  0  0  0  0  0  0  0  0  0  0  0
    0.4425   -0.7534   -3.7491 H   0  0  0  0  0  0  0  0  0  0  0  0
    1.9073   -1.5783   -4.1436 H   0  0  0  0  0  0  0  0  0  0  0  0
    3.0062   -1.4583   -1.9112 N   0  0  0  0  0  0  0  0  0  0  0  0
    3.6021   -1.8482   -2.6179 H   0  0  0  0  0  0  0  0  0  0  0  0
    3.3838   -1.3149   -0.9896 H   0  0  0  0  0  0  0  0  0  0  0  0
    2.1819    2.2901    3.5709 C   0  0  0  0  0  0  0  0  0  0  0  0
    1.0790    1.7968    3.7810 O   0  0  0  0  0  0  0  0  0  0  0  0
    2.9975    1.8534    2.5868 N   0  0  0  0  0  0  0  0  0  0  0  0
    2.7556    1.0262    2.0521 H   0  0  0  0  0  0  0  0  0  0  0  0
    3.9280    2.2160    2.4904 H   0  0  0  0  0  0  0  0  0  0  0  0
    2.6589    3.3090    4.3299 N   0  0  0  0  0  0  0  0  0  0  0  0
    3.4991    3.8027    4.0903 H   0  0  0  0  0  0  0  0  0  0  0  0
    2.0362    3.7326    4.9945 H   0  0  0  0  0  0  0  0  0  0  0  0
   -1.3452    1.0189   -4.8753 C   0  0  0  0  0  0  0  0  0  0  0  0
   -1.1249   -0.1438   -4.5461 O   0  0  0  0  0  0  0  0  0  0  0  0
   -1.3180    1.4100   -6.1687 N   0  0  0  0  0  0  0  0  0  0  0  0
   -1.2098    0.7030   -6.8745 H   0  0  0  0  0  0  0  0  0  0  0  0
   -1.6011    2.3289   -6.4562 H   0  0  0  0  0  0  0  0  0  0  0  0
   -1.6254    1.9765   -3.9626 N   0  0  0  0  0  0  0  0  0  0  0  0
   -1.7220    2.9424   -4.2162 H   0  0  0  0  0  0  0  0  0  0  0  0
   -1.5717    1.7333   -2.9867 H   0  0  0  0  0  0  0  0  0  0  0  0
   -2.6014   -0.8502   -0.9250 C   0  0  0  0  0  0  0  0  0  0  0  0
   -2.4310   -0.9230    0.2901 O   0  0  0  0  0  0  0  0  0  0  0  0
   -3.7610   -1.2539   -1.5023 N   0  0  0  0  0  0  0  0  0  0  0  0
   -4.5245   -1.5375   -0.9158 H   0  0  0  0  0  0  0  0  0  0  0  0
   -3.9240   -1.1427   -2.4860 H   0  0  0  0  0  0  0  0  0  0  0  0
   -1.6795   -0.3298   -1.7620 N   0  0  0  0  0  0  0  0  0  0  0  0
   -1.7511   -0.4934   -2.7603 H   0  0  0  0  0  0  0  0  0  0  0  0
   -0.7236   -0.2438   -1.4245 H   0  0  0  0  0  0  0  0  0  0  0  0
  1  2  1  0  0  0  0
  2  3  1  0  0  0  0
  2  4  1  0  0  0  0
  2  5  1  0  0  0  0
  5  6  1  0  0  0  0
  5  7  1  0  0  0  0
  5  8  1  0  0  0  0
  8  9  1  0  0  0  0
  9 10  1  0  0  0  0
  9 11  1  0  0  0  0
  9 12  1  0  0  0  0
  8 13  1  0  0  0  0
 13 14  1  0  0  0  0
 13 15  1  0  0  0  0
 13 16  1  0  0  0  0
  8 17  1  0  0  0  0
 17 18  1  0  0  0  0
 17 19  1  0  0  0  0
 17 20  1  0  0  0  0
  1 21  1  0  0  0  0
 22 23  4  0  0  0  0
 22 24  4  0  0  0  0
 24 25  1  0  0  0  0
 24 26  1  0  0  0  0
 22 27  4  0  0  0  0
 27 28  1  0  0  0  0
 27 29  1  0  0  0  0
 30 31  2  0  0  0  0
 30 32  4  0  0  0  0
 32 33  1  0  0  0  0
 32 34  1  0  0  0  0
 30 35  1  0  0  0  0
 35 36  1  0  0  0  0
 35 37  1  0  0  0  0
 38 39  2  0  0  0  0
 38 40  4  0  0  0  0
 40 41  1  0  0  0  0
 40 42  1  0  0  0  0
 38 43  4  0  0  0  0
 43 44  1  0  0  0  0
 43 45  1  0  0  0  0
 46 47  2  0  0  0  0
 46 48  4  0  0  0  0
 48 49  1  0  0  0  0
 48 50  1  0  0  0  0
 46 51  4  0  0  0  0
 51 52  1  0  0  0  0
 51 53  1  0  0  0  0
M  CHG  1   1   1
M  END
