  53

 O         -2.0422380676       -0.1191371878       -2.1037585999
 C         -0.8138086918       -0.7547872406       -2.3338324541
 H         -1.0636681961       -1.6788083767       -2.8616365136
 H         -0.1859172967       -0.1433302589       -2.9934174250
 C         -0.0909331195       -1.0244326366       -0.9996509212
 H         -0.8444537139       -0.9923828914       -0.2078069769
 H          0.6519674292       -0.2454107269       -0.8183964545
 N          0.6053377873       -2.3296520336       -0.8655413938
 C          1.2421525230       -2.3373301130        0.4641412988
 H          1.9404830656       -1.5026030806        0.5247526993
 H          1.7802521736       -3.2706755313        0.6149164823
 H          0.4771192934       -2.2327873178        1.2298517598
 C          1.6466371244       -2.4608734411       -1.8949354253
 H          1.2055942744       -2.4395281506       -2.8880969538
 H          2.1843707244       -3.3981664634       -1.7652862824
 H          2.3398137914       -1.6256402274       -1.7842728787
 C         -0.3504225516       -3.4461182535       -0.9267337397
 H         -0.8152979047       -3.5109588246       -1.9068326847
 H         -1.1231142723       -3.2870221510       -0.1745384219
 H          0.1625243479       -4.3841450860       -0.7238500929
 H         -1.8643881706        0.7310144677       -1.6379120237
 C          3.7099864524        0.8722496176       -0.3165619988
 O          2.8688647612        0.0259180008       -0.6104481347
 N          3.5878765587        1.6744309074        0.7549499893
 H          2.7059499693        1.6994979989        1.2629155969
 H          4.2383771280        2.4222149370        0.9139198276
 N          4.8308009729        1.0434410342       -1.0686184702
 H          5.5854654497        1.6276850341       -0.7576471312
 H          5.0271746539        0.3772968119       -1.7940661187
 C         -0.7368735796        3.0841465451       -0.8248052116
 O         -1.2896178402        1.9914660946       -0.6450486402
 N         -1.0610936065        3.8552838977       -1.8924320792
 H         -1.8579794464        3.5911104439       -2.4450002269
 H         -0.7256777565        4.7975491038       -1.9787883058
 N          0.2211252188        3.5328335704       -0.0087163177
 H          0.6565125103        4.4249568667       -0.1537304344
 H          0.5326520641        2.9489784562        0.7753297962
 C         -3.3350057055       -1.8044391516        0.9754008427
 O         -2.1281259237       -1.8645516300        1.2253227292
 N         -3.8039324990       -1.4073791291       -0.2212202077
 H         -3.1793583264       -0.9827783937       -0.9049192422
 H         -4.7892980634       -1.2751499901       -0.3613408700
 N         -4.2581266762       -2.1610131015        1.8989218805
 H         -5.2393541066       -2.1877556422        1.6908324695
 H         -3.9462720771       -2.5526811263        2.7693974754
 C          0.3702003099        0.8622375663        2.3226124191
 O          1.0851960125        1.8202677475        2.0126782148
 N         -0.8383809221        0.6604527497        1.7858048974
 H         -1.0957751319        1.2150274773        0.9682858117
 H         -1.3260804895       -0.2137837803        1.9214156484
 N          0.8014397657       -0.0688872869        3.2220847175
 H          0.1311139538       -0.6923967463        3.6378651075
 H          1.5936851615        0.1818705580        3.7897580701
