 xtb: 6.6.1 (unknown-commit)
          01102418323D

 53 48  0     0  0            999 V2000
   -2.5538   -0.0201   -1.1655 O   0  0  0  0  0  0  0  0  0  0  0  0
   -1.1542   -0.2030   -1.0656 C   0  0  0  0  0  0  0  0  0  0  0  0
   -0.9996   -1.2802   -0.9954 H   0  0  0  0  0  0  0  0  0  0  0  0
   -0.6648    0.1522   -1.9807 H   0  0  0  0  0  0  0  0  0  0  0  0
   -0.5072    0.5376    0.0990 C   0  0  0  0  0  0  0  0  0  0  0  0
   -0.8399    1.5807    0.1025 H   0  0  0  0  0  0  0  0  0  0  0  0
    0.5735    0.5135   -0.0417 H   0  0  0  0  0  0  0  0  0  0  0  0
   -0.7895    0.0078    1.4612 N   0  0  0  0  0  0  0  0  0  0  0  0
   -0.0812    0.8787    2.4148 C   0  0  0  0  0  0  0  0  0  0  0  0
   -0.2025    0.5033    3.4283 H   0  0  0  0  0  0  0  0  0  0  0  0
   -0.4949    1.8835    2.3464 H   0  0  0  0  0  0  0  0  0  0  0  0
    0.9748    0.9263    2.1586 H   0  0  0  0  0  0  0  0  0  0  0  0
   -0.3027   -1.3717    1.6065 C   0  0  0  0  0  0  0  0  0  0  0  0
    0.7253   -1.4287    1.2513 H   0  0  0  0  0  0  0  0  0  0  0  0
   -0.9052   -2.0597    1.0162 H   0  0  0  0  0  0  0  0  0  0  0  0
   -0.3493   -1.6719    2.6509 H   0  0  0  0  0  0  0  0  0  0  0  0
   -2.2292    0.0735    1.7520 C   0  0  0  0  0  0  0  0  0  0  0  0
   -2.7792   -0.5640    1.0641 H   0  0  0  0  0  0  0  0  0  0  0  0
   -2.5657    1.1035    1.6400 H   0  0  0  0  0  0  0  0  0  0  0  0
   -2.4153   -0.2569    2.7722 H   0  0  0  0  0  0  0  0  0  0  0  0
   -2.7449    0.9238   -1.2226 H   0  0  0  0  0  0  0  0  0  0  0  0
    2.2442   -2.5458   -1.0303 C   0  0  0  0  0  0  0  0  0  0  0  0
    2.0191   -1.4806   -0.4604 O   0  0  0  0  0  0  0  0  0  0  0  0
    3.4649   -2.8159   -1.5687 N   0  0  0  0  0  0  0  0  0  0  0  0
    4.2286   -2.2013   -1.3505 H   0  0  0  0  0  0  0  0  0  0  0  0
    3.6940   -3.7334   -1.9060 H   0  0  0  0  0  0  0  0  0  0  0  0
    1.3151   -3.5059   -1.1766 N   0  0  0  0  0  0  0  0  0  0  0  0
    1.5163   -4.3381   -1.7003 H   0  0  0  0  0  0  0  0  0  0  0  0
    0.3574   -3.3574   -0.8804 H   0  0  0  0  0  0  0  0  0  0  0  0
    3.2186    1.9837    0.0754 C   0  0  0  0  0  0  0  0  0  0  0  0
    2.1222    2.0908    0.6158 O   0  0  0  0  0  0  0  0  0  0  0  0
    3.6788    0.8105   -0.3969 N   0  0  0  0  0  0  0  0  0  0  0  0
    3.0629   -0.0039   -0.4049 H   0  0  0  0  0  0  0  0  0  0  0  0
    4.5300    0.7766   -0.9279 H   0  0  0  0  0  0  0  0  0  0  0  0
    4.0359    3.0609   -0.0940 N   0  0  0  0  0  0  0  0  0  0  0  0
    4.9937    2.9454   -0.3731 H   0  0  0  0  0  0  0  0  0  0  0  0
    3.8039    3.9048    0.3996 H   0  0  0  0  0  0  0  0  0  0  0  0
   -1.0057    4.2819    0.8561 C   0  0  0  0  0  0  0  0  0  0  0  0
   -1.6156    3.2231    0.9698 O   0  0  0  0  0  0  0  0  0  0  0  0
    0.3409    4.3457    0.8103 N   0  0  0  0  0  0  0  0  0  0  0  0
    0.9016    3.4977    0.7657 H   0  0  0  0  0  0  0  0  0  0  0  0
    0.7980    5.2204    0.6279 H   0  0  0  0  0  0  0  0  0  0  0  0
   -1.6627    5.4673    0.7570 N   0  0  0  0  0  0  0  0  0  0  0  0
   -1.1806    6.3458    0.8160 H   0  0  0  0  0  0  0  0  0  0  0  0
   -2.6546    5.4673    0.9170 H   0  0  0  0  0  0  0  0  0  0  0  0
   -2.5801   -3.6871   -1.0277 C   0  0  0  0  0  0  0  0  0  0  0  0
   -1.5067   -3.3293   -0.5488 O   0  0  0  0  0  0  0  0  0  0  0  0
   -3.5484   -2.8067   -1.3569 N   0  0  0  0  0  0  0  0  0  0  0  0
   -3.3315   -1.8193   -1.3542 H   0  0  0  0  0  0  0  0  0  0  0  0
   -4.3687   -3.1026   -1.8544 H   0  0  0  0  0  0  0  0  0  0  0  0
   -2.8577   -4.9956   -1.2474 N   0  0  0  0  0  0  0  0  0  0  0  0
   -3.7770   -5.3019   -1.5102 H   0  0  0  0  0  0  0  0  0  0  0  0
   -2.2223   -5.6828   -0.8821 H   0  0  0  0  0  0  0  0  0  0  0  0
  1  2  1  0  0  0  0
  2  3  1  0  0  0  0
  2  4  1  0  0  0  0
  2  5  1  0  0  0  0
  5  6  1  0  0  0  0
  5  7  1  0  0  0  0
  5  8  1  0  0  0  0
  8  9  1  0  0  0  0
  9 10  1  0  0  0  0
  9 11  1  0  0  0  0
  9 12  1  0  0  0  0
  8 13  1  0  0  0  0
 13 14  1  0  0  0  0
 13 15  1  0  0  0  0
 13 16  1  0  0  0  0
  8 17  1  0  0  0  0
 17 18  1  0  0  0  0
 17 19  1  0  0  0  0
 17 20  1  0  0  0  0
  1 21  1  0  0  0  0
 22 23  2  0  0  0  0
 22 24  1  0  0  0  0
 24 25  1  0  0  0  0
 24 26  1  0  0  0  0
 22 27  4  0  0  0  0
 27 28  1  0  0  0  0
 27 29  1  0  0  0  0
 30 31  2  0  0  0  0
 30 32  4  0  0  0  0
 32 33  1  0  0  0  0
 32 34  1  0  0  0  0
 30 35  1  0  0  0  0
 35 36  1  0  0  0  0
 35 37  1  0  0  0  0
 38 39  2  0  0  0  0
 38 40  4  0  0  0  0
 40 41  1  0  0  0  0
 40 42  1  0  0  0  0
 38 43  1  0  0  0  0
 43 44  1  0  0  0  0
 43 45  1  0  0  0  0
 46 47  2  0  0  0  0
 46 48  4  0  0  0  0
 48 49  1  0  0  0  0
 48 50  1  0  0  0  0
 46 51  4  0  0  0  0
 51 52  1  0  0  0  0
 51 53  1  0  0  0  0
M  CHG  1   1   1
M  END
