  53

 O         -3.0675034397       -3.5900709351       -1.6191874618
 C         -3.3383474018       -2.5471702682       -2.5043630806
 H         -3.7767498176       -2.9968832703       -3.3991309320
 H         -4.0780959093       -1.8539181625       -2.0834069313
 C         -2.1057935480       -1.6919394589       -2.8504521913
 H         -1.7580712036       -1.2041193221       -1.9363825038
 H         -2.4159008941       -0.9312362307       -3.5682282856
 N         -0.9446202300       -2.4338605435       -3.4238667644
 C         -0.2443109021       -3.1735009284       -2.3582012140
 H          0.1341604931       -2.4699828949       -1.6199090331
 H          0.5877970099       -3.7326792037       -2.7812054928
 H         -0.9396884203       -3.8583942289       -1.8763105177
 C         -0.0106667574       -1.4485893968       -3.9962770616
 H          0.2693751526       -0.7342965709       -3.2154843137
 H         -0.4780533777       -0.9223968788       -4.8263307672
 H          0.8847297164       -1.9511908338       -4.3568222410
 C         -1.3719915497       -3.3782201268       -4.4680718956
 H         -1.9700328492       -2.8643844683       -5.2188074369
 H         -1.9585869902       -4.1804155525       -4.0255186191
 H         -0.4980322250       -3.8115657062       -4.9515418642
 H         -2.8286156845       -3.1828578888       -0.7640389095
 C          3.1982379685        3.3865520712        2.3567486558
 O          2.2986171340        3.7521165382        1.5941160658
 N          3.1244962612        2.2328085518        3.0408923125
 H          2.2950407123        1.6485858307        2.9454247147
 H          3.8531317367        1.9427563305        3.6662075658
 N          4.3210402052        4.1244002594        2.5151649846
 H          5.0246882619        3.8903389677        3.1910314334
 H          4.3678656123        5.0216941284        2.0663825093
 C          1.0351600914        1.2544320001       -1.2064051223
 O          0.5083659399        0.1659534479       -1.4714052971
 N          1.1618450626        2.2190181088       -2.1512925935
 H          0.9119401994        2.0255454125       -3.1034051982
 H          1.6461204796        3.0739681977       -1.9470548322
 N          1.5309079675        1.5535789363       -0.0010497321
 H          1.8321163244        2.4901221469        0.2438083188
 H          1.3339470025        0.9554160427        0.7889287263
 C         -0.3055524180        1.5719806643        2.7812475517
 O          0.6705679840        0.8158475739        2.6693663340
 N         -0.2094288976        2.8865273999        2.5410383067
 H          0.6760197948        3.2769695952        2.2122932252
 H         -0.9963314189        3.4989753405        2.6510940109
 N         -1.5130421540        1.0965335655        3.1590893589
 H         -2.3230853640        1.6886798327        3.1786081867
 H         -1.6498982331        0.0979479116        3.2115649055
 C         -1.2352571333       -1.7501563873        1.1750024478
 O         -2.0566695913       -1.9685332081        0.2927024448
 N         -1.5371079300       -1.9484746586        2.5033020909
 H         -2.3512044402       -2.5149587015        2.6856342118
 H         -0.7697783994       -2.0751572816        3.1444441080
 N          0.0099070221       -1.2985708848        0.9288825380
 H          0.5123737067       -0.8777542859        1.7021583511
 H          0.1762827174       -0.8632037361        0.0190851186
