 xtb: 6.6.1 (unknown-commit)
          01102415423D

 53 48  0     0  0            999 V2000
   -3.0675   -3.5901   -1.6192 O   0  0  0  0  0  0  0  0  0  0  0  0
   -3.3384   -2.5472   -2.5043 C   0  0  0  0  0  0  0  0  0  0  0  0
   -3.7768   -2.9969   -3.3991 H   0  0  0  0  0  0  0  0  0  0  0  0
   -4.0781   -1.8539   -2.0834 H   0  0  0  0  0  0  0  0  0  0  0  0
   -2.1058   -1.6919   -2.8504 C   0  0  0  0  0  0  0  0  0  0  0  0
   -1.7581   -1.2041   -1.9364 H   0  0  0  0  0  0  0  0  0  0  0  0
   -2.4159   -0.9312   -3.5682 H   0  0  0  0  0  0  0  0  0  0  0  0
   -0.9446   -2.4339   -3.4239 N   0  0  0  0  0  0  0  0  0  0  0  0
   -0.2443   -3.1735   -2.3582 C   0  0  0  0  0  0  0  0  0  0  0  0
    0.1341   -2.4700   -1.6199 H   0  0  0  0  0  0  0  0  0  0  0  0
    0.5878   -3.7327   -2.7812 H   0  0  0  0  0  0  0  0  0  0  0  0
   -0.9397   -3.8584   -1.8763 H   0  0  0  0  0  0  0  0  0  0  0  0
   -0.0107   -1.4486   -3.9963 C   0  0  0  0  0  0  0  0  0  0  0  0
    0.2694   -0.7343   -3.2155 H   0  0  0  0  0  0  0  0  0  0  0  0
   -0.4781   -0.9224   -4.8263 H   0  0  0  0  0  0  0  0  0  0  0  0
    0.8847   -1.9512   -4.3568 H   0  0  0  0  0  0  0  0  0  0  0  0
   -1.3720   -3.3782   -4.4681 C   0  0  0  0  0  0  0  0  0  0  0  0
   -1.9701   -2.8644   -5.2188 H   0  0  0  0  0  0  0  0  0  0  0  0
   -1.9586   -4.1804   -4.0255 H   0  0  0  0  0  0  0  0  0  0  0  0
   -0.4981   -3.8116   -4.9515 H   0  0  0  0  0  0  0  0  0  0  0  0
   -2.8286   -3.1828   -0.7640 H   0  0  0  0  0  0  0  0  0  0  0  0
    3.1983    3.3865    2.3567 C   0  0  0  0  0  0  0  0  0  0  0  0
    2.2986    3.7521    1.5941 O   0  0  0  0  0  0  0  0  0  0  0  0
    3.1245    2.2328    3.0409 N   0  0  0  0  0  0  0  0  0  0  0  0
    2.2951    1.6486    2.9454 H   0  0  0  0  0  0  0  0  0  0  0  0
    3.8532    1.9427    3.6662 H   0  0  0  0  0  0  0  0  0  0  0  0
    4.3211    4.1244    2.5151 N   0  0  0  0  0  0  0  0  0  0  0  0
    5.0247    3.8903    3.1910 H   0  0  0  0  0  0  0  0  0  0  0  0
    4.3679    5.0217    2.0664 H   0  0  0  0  0  0  0  0  0  0  0  0
    1.0352    1.2544   -1.2064 C   0  0  0  0  0  0  0  0  0  0  0  0
    0.5084    0.1659   -1.4714 O   0  0  0  0  0  0  0  0  0  0  0  0
    1.1618    2.2190   -2.1513 N   0  0  0  0  0  0  0  0  0  0  0  0
    0.9119    2.0255   -3.1034 H   0  0  0  0  0  0  0  0  0  0  0  0
    1.6461    3.0740   -1.9471 H   0  0  0  0  0  0  0  0  0  0  0  0
    1.5309    1.5536   -0.0011 N   0  0  0  0  0  0  0  0  0  0  0  0
    1.8321    2.4901    0.2438 H   0  0  0  0  0  0  0  0  0  0  0  0
    1.3340    0.9554    0.7889 H   0  0  0  0  0  0  0  0  0  0  0  0
   -0.3055    1.5720    2.7812 C   0  0  0  0  0  0  0  0  0  0  0  0
    0.6706    0.8158    2.6694 O   0  0  0  0  0  0  0  0  0  0  0  0
   -0.2094    2.8865    2.5410 N   0  0  0  0  0  0  0  0  0  0  0  0
    0.6760    3.2770    2.2123 H   0  0  0  0  0  0  0  0  0  0  0  0
   -0.9963    3.4990    2.6511 H   0  0  0  0  0  0  0  0  0  0  0  0
   -1.5130    1.0965    3.1591 N   0  0  0  0  0  0  0  0  0  0  0  0
   -2.3231    1.6887    3.1786 H   0  0  0  0  0  0  0  0  0  0  0  0
   -1.6499    0.0980    3.2116 H   0  0  0  0  0  0  0  0  0  0  0  0
   -1.2353   -1.7501    1.1750 C   0  0  0  0  0  0  0  0  0  0  0  0
   -2.0567   -1.9685    0.2927 O   0  0  0  0  0  0  0  0  0  0  0  0
   -1.5371   -1.9485    2.5033 N   0  0  0  0  0  0  0  0  0  0  0  0
   -2.3512   -2.5149    2.6856 H   0  0  0  0  0  0  0  0  0  0  0  0
   -0.7698   -2.0751    3.1445 H   0  0  0  0  0  0  0  0  0  0  0  0
    0.0099   -1.2986    0.9289 N   0  0  0  0  0  0  0  0  0  0  0  0
    0.5124   -0.8778    1.7022 H   0  0  0  0  0  0  0  0  0  0  0  0
    0.1763   -0.8632    0.0191 H   0  0  0  0  0  0  0  0  0  0  0  0
  1  2  1  0  0  0  0
  2  3  1  0  0  0  0
  2  4  1  0  0  0  0
  2  5  1  0  0  0  0
  5  6  1  0  0  0  0
  5  7  1  0  0  0  0
  5  8  1  0  0  0  0
  8  9  1  0  0  0  0
  9 10  1  0  0  0  0
  9 11  1  0  0  0  0
  9 12  1  0  0  0  0
  8 13  1  0  0  0  0
 13 14  1  0  0  0  0
 13 15  1  0  0  0  0
 13 16  1  0  0  0  0
  8 17  1  0  0  0  0
 17 18  1  0  0  0  0
 17 19  1  0  0  0  0
 17 20  1  0  0  0  0
  1 21  1  0  0  0  0
 22 23  4  0  0  0  0
 22 24  4  0  0  0  0
 24 25  1  0  0  0  0
 24 26  1  0  0  0  0
 22 27  4  0  0  0  0
 27 28  1  0  0  0  0
 27 29  1  0  0  0  0
 30 31  4  0  0  0  0
 30 32  4  0  0  0  0
 32 33  1  0  0  0  0
 32 34  1  0  0  0  0
 30 35  4  0  0  0  0
 35 36  1  0  0  0  0
 35 37  1  0  0  0  0
 38 39  4  0  0  0  0
 38 40  4  0  0  0  0
 40 41  1  0  0  0  0
 40 42  1  0  0  0  0
 38 43  4  0  0  0  0
 43 44  1  0  0  0  0
 43 45  1  0  0  0  0
 46 47  2  0  0  0  0
 46 48  1  0  0  0  0
 48 49  1  0  0  0  0
 48 50  1  0  0  0  0
 46 51  4  0  0  0  0
 51 52  1  0  0  0  0
 51 53  1  0  0  0  0
M  CHG  1   1   1
M  END
