 xtb: 6.6.1 (unknown-commit)
          01102418253D

 53 48  0     0  0            999 V2000
   -0.2621    2.9185   -0.9310 O   0  0  0  0  0  0  0  0  0  0  0  0
   -1.5936    2.5919   -1.2211 C   0  0  0  0  0  0  0  0  0  0  0  0
   -2.1724    2.8085   -0.3192 H   0  0  0  0  0  0  0  0  0  0  0  0
   -1.9703    3.2400   -2.0266 H   0  0  0  0  0  0  0  0  0  0  0  0
   -1.7986    1.1498   -1.6979 C   0  0  0  0  0  0  0  0  0  0  0  0
   -1.0677    0.9626   -2.4895 H   0  0  0  0  0  0  0  0  0  0  0  0
   -2.8069    1.0636   -2.1080 H   0  0  0  0  0  0  0  0  0  0  0  0
   -1.6209    0.0856   -0.6774 N   0  0  0  0  0  0  0  0  0  0  0  0
   -0.2702    0.1430   -0.0946 C   0  0  0  0  0  0  0  0  0  0  0  0
    0.4692    0.1599   -0.8908 H   0  0  0  0  0  0  0  0  0  0  0  0
   -0.1238   -0.7411    0.5195 H   0  0  0  0  0  0  0  0  0  0  0  0
   -0.1750    1.0262    0.5300 H   0  0  0  0  0  0  0  0  0  0  0  0
   -1.7802   -1.2192   -1.3409 C   0  0  0  0  0  0  0  0  0  0  0  0
   -2.7329   -1.2698   -1.8641 H   0  0  0  0  0  0  0  0  0  0  0  0
   -1.7377   -2.0033   -0.5878 H   0  0  0  0  0  0  0  0  0  0  0  0
   -0.9602   -1.3789   -2.0385 H   0  0  0  0  0  0  0  0  0  0  0  0
   -2.6158    0.1909    0.4006 C   0  0  0  0  0  0  0  0  0  0  0  0
   -2.4171    1.0666    1.0144 H   0  0  0  0  0  0  0  0  0  0  0  0
   -2.5253   -0.6871    1.0372 H   0  0  0  0  0  0  0  0  0  0  0  0
   -3.6212    0.2398   -0.0124 H   0  0  0  0  0  0  0  0  0  0  0  0
    0.3089    2.5234   -1.6211 H   0  0  0  0  0  0  0  0  0  0  0  0
    1.4550   -3.2541   -1.1470 C   0  0  0  0  0  0  0  0  0  0  0  0
    1.1283   -2.1966   -1.6735 O   0  0  0  0  0  0  0  0  0  0  0  0
    2.4387   -4.0358   -1.6730 N   0  0  0  0  0  0  0  0  0  0  0  0
    2.7689   -3.8170   -2.5965 H   0  0  0  0  0  0  0  0  0  0  0  0
    2.5926   -4.9715   -1.3427 H   0  0  0  0  0  0  0  0  0  0  0  0
    0.8830   -3.7170   -0.0175 N   0  0  0  0  0  0  0  0  0  0  0  0
    1.2384   -4.5421    0.4303 H   0  0  0  0  0  0  0  0  0  0  0  0
    0.2351   -3.1409    0.5087 H   0  0  0  0  0  0  0  0  0  0  0  0
   -0.4281    2.8842    2.7589 C   0  0  0  0  0  0  0  0  0  0  0  0
   -0.9583    1.8178    2.4567 O   0  0  0  0  0  0  0  0  0  0  0  0
   -0.2900    3.2659    4.0560 N   0  0  0  0  0  0  0  0  0  0  0  0
   -0.7725    2.7358    4.7595 H   0  0  0  0  0  0  0  0  0  0  0  0
    0.0104    4.1926    4.2985 H   0  0  0  0  0  0  0  0  0  0  0  0
    0.0696    3.7264    1.8356 N   0  0  0  0  0  0  0  0  0  0  0  0
    0.5300    4.5788    2.0961 H   0  0  0  0  0  0  0  0  0  0  0  0
    0.0459    3.4745    0.8542 H   0  0  0  0  0  0  0  0  0  0  0  0
    2.0887    0.9889   -3.2814 C   0  0  0  0  0  0  0  0  0  0  0  0
    1.0292    1.3434   -2.7671 O   0  0  0  0  0  0  0  0  0  0  0  0
    2.9086    1.8833   -3.8906 N   0  0  0  0  0  0  0  0  0  0  0  0
    2.5709    2.8194   -4.0282 H   0  0  0  0  0  0  0  0  0  0  0  0
    3.7031    1.5896   -4.4290 H   0  0  0  0  0  0  0  0  0  0  0  0
    2.4998   -0.2907   -3.2652 N   0  0  0  0  0  0  0  0  0  0  0  0
    3.4048   -0.5422   -3.6186 H   0  0  0  0  0  0  0  0  0  0  0  0
    1.9822   -0.9785   -2.7194 H   0  0  0  0  0  0  0  0  0  0  0  0
   -0.8221   -2.0836    2.9553 C   0  0  0  0  0  0  0  0  0  0  0  0
   -0.9210   -2.2355    1.7385 O   0  0  0  0  0  0  0  0  0  0  0  0
   -0.8836   -0.8793    3.5510 N   0  0  0  0  0  0  0  0  0  0  0  0
   -0.9216   -0.0162    3.0173 H   0  0  0  0  0  0  0  0  0  0  0  0
   -0.7367   -0.7993    4.5409 H   0  0  0  0  0  0  0  0  0  0  0  0
   -0.6257   -3.1476    3.7789 N   0  0  0  0  0  0  0  0  0  0  0  0
   -0.6983   -3.0571    4.7764 H   0  0  0  0  0  0  0  0  0  0  0  0
   -0.7349   -4.0681    3.3909 H   0  0  0  0  0  0  0  0  0  0  0  0
  1  2  1  0  0  0  0
  2  3  1  0  0  0  0
  2  4  1  0  0  0  0
  2  5  1  0  0  0  0
  5  6  1  0  0  0  0
  5  7  1  0  0  0  0
  5  8  1  0  0  0  0
  8  9  1  0  0  0  0
  9 10  1  0  0  0  0
  9 11  1  0  0  0  0
  9 12  1  0  0  0  0
  8 13  1  0  0  0  0
 13 14  1  0  0  0  0
 13 15  1  0  0  0  0
 13 16  1  0  0  0  0
  8 17  1  0  0  0  0
 17 18  1  0  0  0  0
 17 19  1  0  0  0  0
 17 20  1  0  0  0  0
  1 21  1  0  0  0  0
 22 23  2  0  0  0  0
 22 24  1  0  0  0  0
 24 25  1  0  0  0  0
 24 26  1  0  0  0  0
 22 27  4  0  0  0  0
 27 28  1  0  0  0  0
 27 29  1  0  0  0  0
 30 31  2  0  0  0  0
 30 32  1  0  0  0  0
 32 33  1  0  0  0  0
 32 34  1  0  0  0  0
 30 35  4  0  0  0  0
 35 36  1  0  0  0  0
 35 37  1  0  0  0  0
 38 39  4  0  0  0  0
 38 40  1  0  0  0  0
 40 41  1  0  0  0  0
 40 42  1  0  0  0  0
 38 43  4  0  0  0  0
 43 44  1  0  0  0  0
 43 45  1  0  0  0  0
 46 47  2  0  0  0  0
 46 48  4  0  0  0  0
 48 49  1  0  0  0  0
 48 50  1  0  0  0  0
 46 51  1  0  0  0  0
 51 52  1  0  0  0  0
 51 53  1  0  0  0  0
M  CHG  1   1   1
M  END
