 xtb: 6.6.1 (unknown-commit)
          01102418343D

 53 48  0     0  0            999 V2000
    1.2790   -2.6981    0.8109 O   0  0  0  0  0  0  0  0  0  0  0  0
    0.4799   -1.7215    1.4156 C   0  0  0  0  0  0  0  0  0  0  0  0
   -0.0041   -2.1966    2.2726 H   0  0  0  0  0  0  0  0  0  0  0  0
    1.0888   -0.8927    1.7962 H   0  0  0  0  0  0  0  0  0  0  0  0
   -0.5624   -1.0829    0.4839 C   0  0  0  0  0  0  0  0  0  0  0  0
   -0.0419   -0.5911   -0.3359 H   0  0  0  0  0  0  0  0  0  0  0  0
   -1.1134   -0.3363    1.0598 H   0  0  0  0  0  0  0  0  0  0  0  0
   -1.5738   -2.0037   -0.1067 N   0  0  0  0  0  0  0  0  0  0  0  0
   -0.9416   -2.9587   -1.0315 C   0  0  0  0  0  0  0  0  0  0  0  0
   -0.5019   -2.4233   -1.8714 H   0  0  0  0  0  0  0  0  0  0  0  0
   -1.6868   -3.6571   -1.4073 H   0  0  0  0  0  0  0  0  0  0  0  0
   -0.1540   -3.5039   -0.5129 H   0  0  0  0  0  0  0  0  0  0  0  0
   -2.5521   -1.1831   -0.8447 C   0  0  0  0  0  0  0  0  0  0  0  0
   -2.0471   -0.5745   -1.5953 H   0  0  0  0  0  0  0  0  0  0  0  0
   -3.0629   -0.5304   -0.1387 H   0  0  0  0  0  0  0  0  0  0  0  0
   -3.2790   -1.8262   -1.3359 H   0  0  0  0  0  0  0  0  0  0  0  0
   -2.2852   -2.7303    0.9566 C   0  0  0  0  0  0  0  0  0  0  0  0
   -1.6129   -3.4244    1.4541 H   0  0  0  0  0  0  0  0  0  0  0  0
   -3.1121   -3.2928    0.5275 H   0  0  0  0  0  0  0  0  0  0  0  0
   -2.6763   -2.0087    1.6726 H   0  0  0  0  0  0  0  0  0  0  0  0
    1.9673   -2.2626    0.2667 H   0  0  0  0  0  0  0  0  0  0  0  0
    3.9968   -0.6502    0.2607 C   0  0  0  0  0  0  0  0  0  0  0  0
    3.2131   -1.2621   -0.4649 O   0  0  0  0  0  0  0  0  0  0  0  0
    3.6549    0.4965    0.8838 N   0  0  0  0  0  0  0  0  0  0  0  0
    2.7718    0.9393    0.6668 H   0  0  0  0  0  0  0  0  0  0  0  0
    4.3389    1.0332    1.3855 H   0  0  0  0  0  0  0  0  0  0  0  0
    5.2524   -1.1035    0.4781 N   0  0  0  0  0  0  0  0  0  0  0  0
    5.8729   -0.6721    1.1383 H   0  0  0  0  0  0  0  0  0  0  0  0
    5.5018   -2.0038    0.1086 H   0  0  0  0  0  0  0  0  0  0  0  0
    0.3342    2.7809   -0.0282 C   0  0  0  0  0  0  0  0  0  0  0  0
    1.1225    1.8593    0.1694 O   0  0  0  0  0  0  0  0  0  0  0  0
    0.4645    3.9672    0.6117 N   0  0  0  0  0  0  0  0  0  0  0  0
    1.2598    4.1064    1.2091 H   0  0  0  0  0  0  0  0  0  0  0  0
   -0.1131    4.7598    0.3989 H   0  0  0  0  0  0  0  0  0  0  0  0
   -0.7606    2.6390   -0.8191 N   0  0  0  0  0  0  0  0  0  0  0  0
   -1.2136    3.4708   -1.1619 H   0  0  0  0  0  0  0  0  0  0  0  0
   -0.7500    1.8509   -1.4833 H   0  0  0  0  0  0  0  0  0  0  0  0
    0.4773   -0.0459   -2.8155 C   0  0  0  0  0  0  0  0  0  0  0  0
   -0.6046    0.5204   -2.6339 O   0  0  0  0  0  0  0  0  0  0  0  0
    1.5865    0.2756   -2.1342 N   0  0  0  0  0  0  0  0  0  0  0  0
    1.4798    0.9008   -1.3368 H   0  0  0  0  0  0  0  0  0  0  0  0
    2.3575   -0.3730   -2.0580 H   0  0  0  0  0  0  0  0  0  0  0  0
    0.5798   -1.0894   -3.6928 N   0  0  0  0  0  0  0  0  0  0  0  0
    1.4981   -1.3876   -3.9772 H   0  0  0  0  0  0  0  0  0  0  0  0
   -0.1410   -1.1561   -4.3936 H   0  0  0  0  0  0  0  0  0  0  0  0
   -3.3596    1.3976    2.1137 C   0  0  0  0  0  0  0  0  0  0  0  0
   -2.9942    0.2603    1.8472 O   0  0  0  0  0  0  0  0  0  0  0  0
   -4.1641    1.6672    3.1680 N   0  0  0  0  0  0  0  0  0  0  0  0
   -4.5394    0.8947    3.6888 H   0  0  0  0  0  0  0  0  0  0  0  0
   -4.5556    2.5777    3.3251 H   0  0  0  0  0  0  0  0  0  0  0  0
   -2.9846    2.4634    1.3645 N   0  0  0  0  0  0  0  0  0  0  0  0
   -3.2083    3.3993    1.6485 H   0  0  0  0  0  0  0  0  0  0  0  0
   -2.2935    2.3327    0.6391 H   0  0  0  0  0  0  0  0  0  0  0  0
  1  2  1  0  0  0  0
  2  3  1  0  0  0  0
  2  4  1  0  0  0  0
  2  5  1  0  0  0  0
  5  6  1  0  0  0  0
  5  7  1  0  0  0  0
  5  8  1  0  0  0  0
  8  9  1  0  0  0  0
  9 10  1  0  0  0  0
  9 11  1  0  0  0  0
  9 12  1  0  0  0  0
  8 13  1  0  0  0  0
 13 14  1  0  0  0  0
 13 15  1  0  0  0  0
 13 16  1  0  0  0  0
  8 17  1  0  0  0  0
 17 18  1  0  0  0  0
 17 19  1  0  0  0  0
 17 20  1  0  0  0  0
  1 21  1  0  0  0  0
 22 23  4  0  0  0  0
 22 24  4  0  0  0  0
 24 25  1  0  0  0  0
 24 26  1  0  0  0  0
 22 27  4  0  0  0  0
 27 28  1  0  0  0  0
 27 29  1  0  0  0  0
 30 31  2  0  0  0  0
 30 32  4  0  0  0  0
 32 33  1  0  0  0  0
 32 34  1  0  0  0  0
 30 35  4  0  0  0  0
 35 36  1  0  0  0  0
 35 37  1  0  0  0  0
 38 39  4  0  0  0  0
 38 40  4  0  0  0  0
 40 41  1  0  0  0  0
 40 42  1  0  0  0  0
 38 43  1  0  0  0  0
 43 44  1  0  0  0  0
 43 45  1  0  0  0  0
 46 47  2  0  0  0  0
 46 48  4  0  0  0  0
 48 49  1  0  0  0  0
 48 50  1  0  0  0  0
 46 51  4  0  0  0  0
 51 52  1  0  0  0  0
 51 53  1  0  0  0  0
M  CHG  1   1   1
M  END
