  53

 O         -2.3677407374       -2.5339287392       -1.2035045299
 C         -3.1780477773       -1.4933707745       -0.7507774876
 H         -3.7361532706       -1.1284472503       -1.6169921490
 H         -3.9079600875       -1.8544072611       -0.0143103037
 C         -2.3912094404       -0.3570818564       -0.0730005077
 H         -1.6841943927       -0.8096926087        0.6275202532
 H         -3.0877670057        0.2691356974        0.4875625115
 N         -1.6091662623        0.5287064392       -0.9755884395
 C         -0.6683534482       -0.2453654638       -1.8019125524
 H          0.0155691776       -0.7902216569       -1.1589267434
 H         -0.1056228804        0.4512750832       -2.4218023833
 H         -1.2045392521       -0.9589278827       -2.4219538219
 C         -0.8323426979        1.4605926143       -0.1378187022
 H         -0.1892443929        0.8976089650        0.5351480880
 H         -1.5014883676        2.0891104700        0.4452819461
 H         -0.2187333676        2.0825504396       -0.7908832474
 C         -2.4721483330        1.3178103902       -1.8678908476
 H         -3.1972727101        1.8857917157       -1.2883688993
 H         -2.9980065343        0.6703129444       -2.5647426741
 H         -1.8398912459        2.0039086977       -2.4311499866
 H         -2.0487301288       -3.0419368252       -0.4343105385
 C          2.4686699799        2.1515471799        1.4806629059
 O          2.5849587087        1.7079873285        0.3354898988
 N          2.9667134733        3.3642536935        1.8173266691
 H          3.5239446203        3.8585348596        1.1437760255
 H          2.9610623538        3.6981313444        2.7635565837
 N          1.8159224941        1.4739002255        2.4389886130
 H          1.7485310744        1.8204475685        3.3776703593
 H          1.3929836027        0.5746885938        2.2077006539
 C          1.4325161877        3.0381572037       -3.0280040299
 O          0.3581413178        2.5371411000       -2.7105093324
 N          1.6186292996        3.5924881937       -4.2533920145
 H          0.8185043814        3.6987329780       -4.8513123672
 H          2.4426336839        4.1205626269       -4.4758722549
 N          2.4924069456        3.0745416253       -2.1938573810
 H          3.3916295809        3.3659452490       -2.5325385221
 H          2.4685830913        2.5520367302       -1.3226337547
 C         -1.9110096200       -3.2552877487        2.4286018014
 O         -1.6025815018       -3.5319768799        1.2666438397
 N         -2.8535312252       -3.9629956528        3.0902689572
 H         -3.2246334458       -4.7858447687        2.6486625405
 H         -3.0490156148       -3.8160373850        4.0635603039
 N         -1.3741020758       -2.1971599873        3.0648370370
 H         -1.5299320816       -2.0433108609        4.0441146399
 H         -0.6107371236       -1.6979180702        2.6036039811
 C          1.3037925838       -1.6024597336        0.7635690547
 O          0.5846925586       -0.8986581247        1.5017259107
 N          2.3659559866       -1.0743596953        0.1367594769
 H          2.5433335232       -0.0700826720        0.2060594667
 H          2.9607091160       -1.6353252012       -0.4446678902
 N          1.0287139649       -2.9006259140        0.5645776953
 H          1.5686850933       -3.4510640215       -0.0780611894
 H          0.1240324348       -3.2641544997        0.8667142933
