 xtb: 6.6.1 (unknown-commit)
          01102418303D

 53 48  0     0  0            999 V2000
    0.6449   -0.2570   -1.6019 O   0  0  0  0  0  0  0  0  0  0  0  0
    0.7442    0.6071   -0.4923 C   0  0  0  0  0  0  0  0  0  0  0  0
    1.7439    0.4689   -0.0759 H   0  0  0  0  0  0  0  0  0  0  0  0
    0.6535    1.6513   -0.8184 H   0  0  0  0  0  0  0  0  0  0  0  0
   -0.3167    0.4026    0.5914 C   0  0  0  0  0  0  0  0  0  0  0  0
   -1.3139    0.5882    0.1869 H   0  0  0  0  0  0  0  0  0  0  0  0
   -0.0925    1.1223    1.3808 H   0  0  0  0  0  0  0  0  0  0  0  0
   -0.3636   -0.9427    1.2297 N   0  0  0  0  0  0  0  0  0  0  0  0
   -0.9450   -1.9241    0.3018 C   0  0  0  0  0  0  0  0  0  0  0  0
   -1.9477   -1.5975    0.0274 H   0  0  0  0  0  0  0  0  0  0  0  0
   -1.0018   -2.8989    0.7820 H   0  0  0  0  0  0  0  0  0  0  0  0
   -0.3242   -1.9949   -0.5884 H   0  0  0  0  0  0  0  0  0  0  0  0
   -1.2339   -0.8265    2.4124 C   0  0  0  0  0  0  0  0  0  0  0  0
   -1.3290   -1.7945    2.9000 H   0  0  0  0  0  0  0  0  0  0  0  0
   -2.2190   -0.4854    2.0966 H   0  0  0  0  0  0  0  0  0  0  0  0
   -0.7945   -0.1140    3.1078 H   0  0  0  0  0  0  0  0  0  0  0  0
    0.9691   -1.3812    1.6677 C   0  0  0  0  0  0  0  0  0  0  0  0
    0.8851   -2.3166    2.2163 H   0  0  0  0  0  0  0  0  0  0  0  0
    1.3875   -0.6113    2.3170 H   0  0  0  0  0  0  0  0  0  0  0  0
    1.6327   -1.5234    0.8197 H   0  0  0  0  0  0  0  0  0  0  0  0
   -0.2209   -0.0903   -2.0373 H   0  0  0  0  0  0  0  0  0  0  0  0
    4.2297   -0.6404   -0.7114 C   0  0  0  0  0  0  0  0  0  0  0  0
    3.6556   -0.3596    0.3333 O   0  0  0  0  0  0  0  0  0  0  0  0
    3.5559   -0.9303   -1.8509 N   0  0  0  0  0  0  0  0  0  0  0  0
    2.5640   -0.7359   -1.8838 H   0  0  0  0  0  0  0  0  0  0  0  0
    4.0436   -0.9932   -2.7265 H   0  0  0  0  0  0  0  0  0  0  0  0
    5.5836   -0.6891   -0.7939 N   0  0  0  0  0  0  0  0  0  0  0  0
    6.0484   -1.0655   -1.6003 H   0  0  0  0  0  0  0  0  0  0  0  0
    6.1077   -0.6324    0.0615 H   0  0  0  0  0  0  0  0  0  0  0  0
    2.3514    1.8662    3.2382 C   0  0  0  0  0  0  0  0  0  0  0  0
    1.2806    1.2934    3.0757 O   0  0  0  0  0  0  0  0  0  0  0  0
    3.4851    1.4962    2.6050 N   0  0  0  0  0  0  0  0  0  0  0  0
    3.4623    0.7972    1.8731 H   0  0  0  0  0  0  0  0  0  0  0  0
    4.3174    2.0512    2.6867 H   0  0  0  0  0  0  0  0  0  0  0  0
    2.4637    2.9350    4.0729 N   0  0  0  0  0  0  0  0  0  0  0  0
    3.3603    3.2983    4.3416 H   0  0  0  0  0  0  0  0  0  0  0  0
    1.6814    3.1432    4.6682 H   0  0  0  0  0  0  0  0  0  0  0  0
   -2.2786   -0.9878   -3.2709 C   0  0  0  0  0  0  0  0  0  0  0  0
   -1.8478   -0.0085   -2.6626 O   0  0  0  0  0  0  0  0  0  0  0  0
   -3.5994   -1.2118   -3.4159 N   0  0  0  0  0  0  0  0  0  0  0  0
   -4.2391   -0.6177   -2.9140 H   0  0  0  0  0  0  0  0  0  0  0  0
   -3.9529   -2.0498   -3.8400 H   0  0  0  0  0  0  0  0  0  0  0  0
   -1.4451   -1.9088   -3.8092 N   0  0  0  0  0  0  0  0  0  0  0  0
   -1.7850   -2.6245   -4.4259 H   0  0  0  0  0  0  0  0  0  0  0  0
   -0.4616   -1.7002   -3.8321 H   0  0  0  0  0  0  0  0  0  0  0  0
   -4.2169    0.8208   -0.1106 C   0  0  0  0  0  0  0  0  0  0  0  0
   -3.4896   -0.0340    0.3767 O   0  0  0  0  0  0  0  0  0  0  0  0
   -5.2340    1.3833    0.5883 N   0  0  0  0  0  0  0  0  0  0  0  0
   -5.4629    0.9975    1.4872 H   0  0  0  0  0  0  0  0  0  0  0  0
   -5.9042    1.9911    0.1535 H   0  0  0  0  0  0  0  0  0  0  0  0
   -4.0653    1.2471   -1.3922 N   0  0  0  0  0  0  0  0  0  0  0  0
   -4.5055    2.1008   -1.6888 H   0  0  0  0  0  0  0  0  0  0  0  0
   -3.1911    0.9914   -1.8506 H   0  0  0  0  0  0  0  0  0  0  0  0
  1  2  1  0  0  0  0
  2  3  1  0  0  0  0
  2  4  1  0  0  0  0
  2  5  1  0  0  0  0
  5  6  1  0  0  0  0
  5  7  1  0  0  0  0
  5  8  1  0  0  0  0
  8  9  1  0  0  0  0
  9 10  1  0  0  0  0
  9 11  1  0  0  0  0
  9 12  1  0  0  0  0
  8 13  1  0  0  0  0
 13 14  1  0  0  0  0
 13 15  1  0  0  0  0
 13 16  1  0  0  0  0
  8 17  1  0  0  0  0
 17 18  1  0  0  0  0
 17 19  1  0  0  0  0
 17 20  1  0  0  0  0
  1 21  1  0  0  0  0
 22 23  2  0  0  0  0
 22 24  4  0  0  0  0
 24 25  1  0  0  0  0
 24 26  1  0  0  0  0
 22 27  4  0  0  0  0
 27 28  1  0  0  0  0
 27 29  1  0  0  0  0
 30 31  2  0  0  0  0
 30 32  4  0  0  0  0
 32 33  1  0  0  0  0
 32 34  1  0  0  0  0
 30 35  1  0  0  0  0
 35 36  1  0  0  0  0
 35 37  1  0  0  0  0
 38 39  2  0  0  0  0
 38 40  4  0  0  0  0
 40 41  1  0  0  0  0
 40 42  1  0  0  0  0
 38 43  4  0  0  0  0
 43 44  1  0  0  0  0
 43 45  1  0  0  0  0
 46 47  2  0  0  0  0
 46 48  4  0  0  0  0
 48 49  1  0  0  0  0
 48 50  1  0  0  0  0
 46 51  4  0  0  0  0
 51 52  1  0  0  0  0
 51 53  1  0  0  0  0
M  CHG  1   1   1
M  END
