  53

 O         -1.0026100991        0.3350791015       -2.7120053864
 C          0.3124444623        0.2380402246       -2.2386593017
 H          0.9110942678       -0.1564920635       -3.0630055154
 H          0.7090807183        1.2276660200       -1.9924822416
 C          0.4487744660       -0.6263012374       -0.9772749476
 H         -0.3891820304       -0.4012233049       -0.3139949095
 H          1.3860360171       -0.3864860271       -0.4702736742
 N          0.4406165191       -2.0977961671       -1.2017502347
 C          0.5227010170       -2.7422226986        0.1205978752
 H          1.4465497158       -2.4305591425        0.6047492187
 H          0.5200858682       -3.8242957435        0.0060607243
 H         -0.3350555531       -2.4377599250        0.7187542293
 C          1.6106396137       -2.5148439479       -1.9889788452
 H          1.5562209444       -2.1233783356       -3.0010285807
 H          1.6489270811       -3.6012710230       -2.0418756971
 H          2.5106170278       -2.1466353359       -1.4978214262
 C         -0.8076352835       -2.5031856247       -1.8638383189
 H         -0.9370649672       -1.9577002215       -2.7954725268
 H         -1.6404049613       -2.2639761201       -1.2039667249
 H         -0.7955925742       -3.5729912021       -2.0626096365
 H         -1.4893074871        0.9533315966       -2.1401577644
 C          3.8675319157       -0.6131111082        1.2289676676
 O          3.2147161437       -1.1605915109        0.3482891607
 N          4.9112522939       -1.2407927001        1.8339979999
 H          5.2351980304       -2.1036233853        1.4334720708
 H          5.5443521907       -0.7437800029        2.4343165915
 N          3.6010066296        0.6414978737        1.6575183779
 H          4.0147771589        0.9729853933        2.5112182400
 H          2.7247350293        1.0734746554        1.3612096032
 C         -2.2401883264        1.9228920912        0.3915198164
 O         -1.8870253875        2.1660683605       -0.7609440484
 N         -3.5783770136        1.8728750985        0.7180405606
 H         -4.1878750589        2.3000663872        0.0360797558
 H         -3.8355124172        2.0350449051        1.6790381250
 N         -1.3715433006        1.6533016964        1.3693047266
 H         -1.6750299228        1.3819845467        2.2862903854
 H         -0.3690169693        1.6739971992        1.1619724322
 C         -3.4615518114       -1.9082107613        1.0644849913
 O         -2.3011886600       -1.6331294708        0.7910045568
 N         -3.8505032471       -3.1771891780        1.3614679076
 H         -3.1369223134       -3.8658714385        1.5228276823
 H         -4.7643612907       -3.3677535439        1.7313614768
 N         -4.4400511256       -0.9749251137        1.0782819795
 H         -5.4071337299       -1.2355226762        1.1453351441
 H         -4.2101585552       -0.0491031277        0.7395974452
 C          1.5414132935        2.9750438069       -0.0570035699
 O          1.3203267333        2.0122447690        0.6864667670
 N          0.5884849293        3.5039899345       -0.8378919708
 H         -0.3406626836        3.0812762404       -0.8533442768
 H          0.7697816749        4.2937875221       -1.4295121186
 N          2.7690631074        3.5400807745       -0.1190379165
 H          2.9747224818        4.3052381726       -0.7342995008
 H          3.5154306250        3.1434083863        0.4230877649
