  53

 O         -1.7215879646       -2.2963887486        0.3744958151
 C         -0.5068963194       -1.8922286386        0.9413544910
 H          0.2463443980       -2.6120329173        0.6020873051
 H         -0.2125455356       -0.9042780618        0.5815154490
 C         -0.4276659381       -1.9253086927        2.4736104922
 H          0.6209332592       -1.7285847270        2.7067481937
 H         -0.7084739897       -2.9194783712        2.8246475051
 N         -1.2323607972       -0.9252928762        3.2336976767
 C         -0.6800911779       -0.8832870338        4.5994832913
 H         -0.6926190559       -1.8765968430        5.0446608565
 H         -1.2682848034       -0.2117030050        5.2223301146
 H          0.3463429039       -0.5215999178        4.5573654034
 C         -2.6522444033       -1.3096771071        3.2871133331
 H         -2.7573460285       -2.3222226463        3.6714451506
 H         -3.0922257624       -1.2529914044        2.2938626318
 H         -3.1914793853       -0.6254204140        3.9399124985
 C         -1.1086224744        0.4199323368        2.6435567724
 H         -0.0511969533        0.6239917667        2.4637376218
 H         -1.5109217522        1.1574056591        3.3343172212
 H         -1.6754346818        0.4719195140        1.7154600129
 H         -2.3325624424       -1.5253214977        0.3566949227
 C          2.6004526280        2.3097889425       -2.7765401261
 O          3.2016416569        1.2944117445       -2.4192240436
 N          1.2611675504        2.4084158468       -2.6865901898
 H          0.7407771089        1.6402749251       -2.2677485049
 H          0.7791485593        3.2553528773       -2.9235146509
 N          3.2643991611        3.3832297840       -3.2622610145
 H          2.7887137213        4.1787722160       -3.6464970032
 H          4.2530239865        3.2971743827       -3.4185705199
 C          2.6601500952        0.3369987243        1.4356862636
 O          1.8835251058        0.0050299309        2.3292054881
 N          4.0051235991        0.2945315774        1.6068974118
 H          4.3650349343        0.1296237966        2.5298458910
 H          4.6242283242        0.6785194482        0.9161899525
 N          2.2430300281        0.7689287045        0.2287459906
 H          2.8849470302        0.9010731959       -0.5418953529
 H          1.2755858154        0.6607308801       -0.0333245450
 C          0.4159047695       -0.9619524393       -2.1635466613
 O         -0.0116668855        0.0673324296       -1.6097773250
 N         -0.3592029507       -2.0649216139       -2.2694155254
 H         -1.1648035188       -2.1507433464       -1.6638104967
 H          0.0327108024       -2.9216619055       -2.6188253563
 N          1.6390382880       -1.0063504914       -2.6997059692
 H          1.9819217393       -1.8334493688       -3.1528493251
 H          2.2560717957       -0.1916160576       -2.6321013755
 C         -3.5959892988        0.4441936424       -0.6536162402
 O         -3.2331333114       -0.0831078825        0.4033197246
 N         -2.7660450520        0.5937757982       -1.6962982583
 H         -1.7728109556        0.3707808118       -1.6015431780
 H         -3.0646150962        1.0706673419       -2.5272360298
 N         -4.8598510381        0.9018760075       -0.8010499628
 H         -5.2002385127        1.2582112132       -1.6751245409
 H         -5.5244420390        0.7199913301       -0.0703896407
