  53

 O         -2.1655741825       -2.3955988156       -0.1651748473
 C         -0.8711584864       -2.0623681355       -0.5744245857
 H         -0.2824909920       -2.9813720542       -0.5398405688
 H         -0.8702793520       -1.7063587738       -1.6133081547
 C         -0.2243639238       -0.9457651720        0.2553245757
 H         -0.8944752312       -0.0866163511        0.2480121123
 H          0.7169744138       -0.6708748346       -0.2193059883
 N          0.0632259853       -1.2640566234        1.6809373899
 C         -1.1944073964       -1.4240889456        2.4296211962
 H         -1.7434348373       -0.4839313152        2.4230823724
 H         -0.9806827415       -1.7079525505        3.4582693861
 H         -1.8061606740       -2.1911481066        1.9561432632
 C          0.8140489535       -0.1284111227        2.2453421688
 H          0.2557344558        0.7955135288        2.0818807727
 H          1.7825264698       -0.0465305384        1.7548696044
 H          0.9607514034       -0.2741881152        3.3135991063
 C          0.8748721879       -2.4868431951        1.7957634730
 H          1.7079916951       -2.4378939149        1.0929641361
 H          0.2674005401       -3.3609707319        1.5745781461
 H          1.2603551189       -2.5795720101        2.8090245046
 H         -2.7311865346       -1.6085717664       -0.2995421789
 C          2.5257256806       -2.0198825804       -1.8798952839
 O          2.7047313661       -1.8817498072       -0.6650633263
 N          2.1156027271       -1.0041531739       -2.6562021990
 H          2.0494350163       -0.0641081009       -2.2588014219
 H          2.0394296425       -1.1082231004       -3.6513941567
 N          2.6725424593       -3.2275106557       -2.4712268215
 H          2.6150380537       -3.3433082922       -3.4663910697
 H          3.0414668443       -3.9859550161       -1.9256932624
 C         -0.7576309377        2.5007876124       -0.0810874007
 O         -0.9821211552        2.1329346455        1.0775378436
 N         -1.4154229253        1.9781222819       -1.1284360697
 H         -2.1622037031        1.3054512855       -0.9640651435
 H         -1.2516676295        2.3077427193       -2.0612747986
 N          0.1491582827        3.4704939851       -0.3541295301
 H          0.5419956266        3.5173288202       -1.2786384034
 H          0.7460647208        3.7531384170        0.4049171859
 C          3.0163286641        1.6595351132       -0.5632899730
 O          2.1280258295        1.5053177287       -1.3966570469
 N          3.5067227811        2.8953590746       -0.2717565924
 H          3.2740417591        3.6500149211       -0.8937828287
 H          4.3337802507        3.0053757525        0.2878109169
 N          3.4855738062        0.6410918514        0.1922479904
 H          4.3309902934        0.7616163854        0.7225084640
 H          3.2548615038       -0.3132750294       -0.1061848193
 C         -4.0618574352        0.4934395349        0.6504346114
 O         -3.3396740548        0.0765592256       -0.2615481716
 N         -5.3594642684        0.1323755781        0.7333788800
 H         -5.7388169114       -0.4711026353        0.0256536454
 H         -5.9667941137        0.4629364059        1.4602724706
 N         -3.5709150275        1.2705622758        1.6347269207
 H         -4.1888751449        1.7355199680        2.2756380886
 H         -2.6335935120        1.6655673189        1.5021573662
