  53

 O         -3.0006700628       -0.7545649178        2.4195778076
 C         -2.0483234587       -1.6791037116        2.8483538818
 H         -1.8417096893       -1.4492025015        3.8972092956
 H         -2.4557320108       -2.7019817869        2.8094777512
 C         -0.7664898756       -1.7026619407        2.0031757200
 H         -1.0644323063       -1.8451595731        0.9603005675
 H         -0.1561308653       -2.5501547129        2.3210555901
 N          0.0809236541       -0.4827260026        2.0424355178
 C         -0.6804898495        0.7023109117        1.6131096261
 H         -1.1445244393        0.4986375400        0.6517218730
 H          0.0069841719        1.5431854897        1.5370723001
 H         -1.4619256689        0.9266760330        2.3347747839
 C          1.2015867769       -0.6796532564        1.1056338420
 H          0.8234833549       -0.9037638843        0.1095981708
 H          1.8292145417       -1.5033740778        1.4395887938
 H          1.7919792115        0.2358714043        1.0738888871
 C          0.6320593481       -0.2268089626        3.3813850284
 H          1.1965258858       -1.0892643745        3.7306516740
 H         -0.1669575449       -0.0114999376        4.0861978165
 H          1.2910916507        0.6390006734        3.3156578705
 H         -3.0822844037       -0.8181721916        1.4456783361
 C          1.3991160338       -1.8603714896       -2.5338984790
 O          0.3414574122       -1.7790730743       -1.8941808297
 N          2.2614369246       -0.8401077042       -2.6018335461
 H          1.9951647520        0.0705366499       -2.2124866367
 H          3.0818348822       -0.8918017937       -3.1775970643
 N          1.7310647772       -3.0009000387       -3.1821339169
 H          2.6127556159       -3.1093014907       -3.6486492835
 H          1.1434311696       -3.8087638502       -3.0815314505
 C          2.8154954937        3.0165812107        1.4561122454
 O          2.0641912422        2.1616927503        1.9140541847
 N          2.8744461623        3.2928295025        0.1353378184
 H          2.4126779971        2.6544351325       -0.5123713065
 H          3.6146162256        3.8667326532       -0.2275158959
 N          3.6295863247        3.7495135649        2.2585150413
 H          4.1456225543        4.5364607698        1.9093727398
 H          3.5138104725        3.6692825729        3.2530293362
 C          0.1600222409        1.7981193989       -1.5436436833
 O          1.3787579565        1.5973757216       -1.5712605762
 N         -0.7265355991        0.8294311234       -1.8217854970
 H         -0.3908433462       -0.1308802645       -1.8959820073
 H         -1.7118735121        0.9608683063       -1.6772491715
 N         -0.3414314890        3.0115795344       -1.2111544002
 H         -1.3194955634        3.2170261658       -1.3025770600
 H          0.2963031389        3.7807616488       -1.1051641628
 C         -3.1918771640       -1.7822014556       -1.1065857786
 O         -2.6998495512       -0.9807908957       -0.3112005059
 N         -4.5247747395       -2.0129033835       -1.1404591084
 H         -5.1190419061       -1.5271190465       -0.4927100622
 H         -4.9420216839       -2.6754994227       -1.7673940159
 N         -2.4307317501       -2.4824517439       -1.9662698257
 H         -2.8367981612       -3.0825827641       -2.6601206168
 H         -1.4308679571       -2.3064914606       -1.9876644518
