 xtb: 6.6.1 (unknown-commit)
          01102415353D

 53 48  0     0  0            999 V2000
   -1.1011   -0.3484   -3.1070 O   0  0  0  0  0  0  0  0  0  0  0  0
    0.1107   -0.0060   -2.4960 C   0  0  0  0  0  0  0  0  0  0  0  0
    0.9050   -0.3516   -3.1614 H   0  0  0  0  0  0  0  0  0  0  0  0
    0.2109    1.0827   -2.4048 H   0  0  0  0  0  0  0  0  0  0  0  0
    0.2841   -0.5745   -1.0806 C   0  0  0  0  0  0  0  0  0  0  0  0
   -0.5820   -0.3013   -0.4769 H   0  0  0  0  0  0  0  0  0  0  0  0
    1.1800   -0.1373   -0.6346 H   0  0  0  0  0  0  0  0  0  0  0  0
    0.4270   -2.0533   -0.9787 N   0  0  0  0  0  0  0  0  0  0  0  0
    0.6589   -2.3634    0.4428 C   0  0  0  0  0  0  0  0  0  0  0  0
    1.5833   -1.8829    0.7597 H   0  0  0  0  0  0  0  0  0  0  0  0
    0.7408   -3.4394    0.5815 H   0  0  0  0  0  0  0  0  0  0  0  0
   -0.1707   -1.9824    1.0362 H   0  0  0  0  0  0  0  0  0  0  0  0
    1.5831   -2.5283   -1.7539 C   0  0  0  0  0  0  0  0  0  0  0  0
    1.4076   -2.3987   -2.8183 H   0  0  0  0  0  0  0  0  0  0  0  0
    1.7488   -3.5855   -1.5557 H   0  0  0  0  0  0  0  0  0  0  0  0
    2.4626   -1.9624   -1.4453 H   0  0  0  0  0  0  0  0  0  0  0  0
   -0.8010   -2.7222   -1.4351 C   0  0  0  0  0  0  0  0  0  0  0  0
   -1.0324   -2.4160   -2.4542 H   0  0  0  0  0  0  0  0  0  0  0  0
   -1.6302   -2.4329   -0.7928 H   0  0  0  0  0  0  0  0  0  0  0  0
   -0.6754   -3.8024   -1.3935 H   0  0  0  0  0  0  0  0  0  0  0  0
   -1.8181    0.1808   -2.7065 H   0  0  0  0  0  0  0  0  0  0  0  0
    3.9275    0.4883   -0.1177 C   0  0  0  0  0  0  0  0  0  0  0  0
    3.2122   -0.5081   -0.0841 O   0  0  0  0  0  0  0  0  0  0  0  0
    3.5241    1.6807    0.3667 N   0  0  0  0  0  0  0  0  0  0  0  0
    2.5591    1.7746    0.6827 H   0  0  0  0  0  0  0  0  0  0  0  0
    4.0603    2.5128    0.2001 H   0  0  0  0  0  0  0  0  0  0  0  0
    5.1717    0.4523   -0.6636 N   0  0  0  0  0  0  0  0  0  0  0  0
    5.8118    1.2189   -0.5606 H   0  0  0  0  0  0  0  0  0  0  0  0
    5.5578   -0.4449   -0.8990 H   0  0  0  0  0  0  0  0  0  0  0  0
   -1.9547    2.1183   -0.9319 C   0  0  0  0  0  0  0  0  0  0  0  0
   -2.6574    1.3110   -1.5518 O   0  0  0  0  0  0  0  0  0  0  0  0
   -1.4406    3.2124   -1.5461 N   0  0  0  0  0  0  0  0  0  0  0  0
   -1.8164    3.4577   -2.4467 H   0  0  0  0  0  0  0  0  0  0  0  0
   -1.0276    3.9473   -0.9995 H   0  0  0  0  0  0  0  0  0  0  0  0
   -1.6487    1.9509    0.3678 N   0  0  0  0  0  0  0  0  0  0  0  0
   -0.8268    2.3869    0.7607 H   0  0  0  0  0  0  0  0  0  0  0  0
   -1.8769    1.0458    0.7693 H   0  0  0  0  0  0  0  0  0  0  0  0
   -3.2734   -1.0942    1.0117 C   0  0  0  0  0  0  0  0  0  0  0  0
   -2.0995   -0.7706    1.2437 O   0  0  0  0  0  0  0  0  0  0  0  0
   -3.9259   -1.9608    1.8235 N   0  0  0  0  0  0  0  0  0  0  0  0
   -3.4920   -2.2353    2.6868 H   0  0  0  0  0  0  0  0  0  0  0  0
   -4.9044   -2.1530    1.7081 H   0  0  0  0  0  0  0  0  0  0  0  0
   -3.9183   -0.6733   -0.0817 N   0  0  0  0  0  0  0  0  0  0  0  0
   -4.8881   -0.8882   -0.2267 H   0  0  0  0  0  0  0  0  0  0  0  0
   -3.4912    0.0473   -0.6776 H   0  0  0  0  0  0  0  0  0  0  0  0
    1.0110    1.0590    2.5825 C   0  0  0  0  0  0  0  0  0  0  0  0
    0.9476    1.6423    1.5020 O   0  0  0  0  0  0  0  0  0  0  0  0
    2.0197    1.2946    3.4554 N   0  0  0  0  0  0  0  0  0  0  0  0
    2.7652    1.9076    3.1785 H   0  0  0  0  0  0  0  0  0  0  0  0
    2.1231    0.7759    4.3077 H   0  0  0  0  0  0  0  0  0  0  0  0
    0.0958    0.1493    2.9721 N   0  0  0  0  0  0  0  0  0  0  0  0
    0.1176   -0.2415    3.8960 H   0  0  0  0  0  0  0  0  0  0  0  0
   -0.7056   -0.0479    2.3895 H   0  0  0  0  0  0  0  0  0  0  0  0
  1  2  1  0  0  0  0
  2  3  1  0  0  0  0
  2  4  1  0  0  0  0
  2  5  1  0  0  0  0
  5  6  1  0  0  0  0
  5  7  1  0  0  0  0
  5  8  1  0  0  0  0
  8  9  1  0  0  0  0
  9 10  1  0  0  0  0
  9 11  1  0  0  0  0
  9 12  1  0  0  0  0
  8 13  1  0  0  0  0
 13 14  1  0  0  0  0
 13 15  1  0  0  0  0
 13 16  1  0  0  0  0
  8 17  1  0  0  0  0
 17 18  1  0  0  0  0
 17 19  1  0  0  0  0
 17 20  1  0  0  0  0
  1 21  1  0  0  0  0
 22 23  2  0  0  0  0
 22 24  4  0  0  0  0
 24 25  1  0  0  0  0
 24 26  1  0  0  0  0
 22 27  1  0  0  0  0
 27 28  1  0  0  0  0
 27 29  1  0  0  0  0
 30 31  4  0  0  0  0
 30 32  4  0  0  0  0
 32 33  1  0  0  0  0
 32 34  1  0  0  0  0
 30 35  4  0  0  0  0
 35 36  1  0  0  0  0
 35 37  1  0  0  0  0
 38 39  4  0  0  0  0
 38 40  4  0  0  0  0
 40 41  1  0  0  0  0
 40 42  1  0  0  0  0
 38 43  4  0  0  0  0
 43 44  1  0  0  0  0
 43 45  1  0  0  0  0
 46 47  2  0  0  0  0
 46 48  4  0  0  0  0
 48 49  1  0  0  0  0
 48 50  1  0  0  0  0
 46 51  4  0  0  0  0
 51 52  1  0  0  0  0
 51 53  1  0  0  0  0
M  CHG  1   1   1
M  END
