 xtb: 6.6.1 (unknown-commit)
          01102418283D

 53 48  0     0  0            999 V2000
    0.6001    0.3519    2.9133 O   0  0  0  0  0  0  0  0  0  0  0  0
   -0.2985   -0.7192    2.8641 C   0  0  0  0  0  0  0  0  0  0  0  0
   -0.3770   -1.0992    3.8873 H   0  0  0  0  0  0  0  0  0  0  0  0
   -1.2964   -0.3985    2.5419 H   0  0  0  0  0  0  0  0  0  0  0  0
    0.1025   -1.8473    1.8973 C   0  0  0  0  0  0  0  0  0  0  0  0
   -0.1154   -1.5432    0.8721 H   0  0  0  0  0  0  0  0  0  0  0  0
   -0.5248   -2.7077    2.1321 H   0  0  0  0  0  0  0  0  0  0  0  0
    1.5344   -2.2628    1.9467 N   0  0  0  0  0  0  0  0  0  0  0  0
    2.3474   -1.3226    1.1526 C   0  0  0  0  0  0  0  0  0  0  0  0
    1.9916   -1.3314    0.1233 H   0  0  0  0  0  0  0  0  0  0  0  0
    3.3921   -1.6268    1.1771 H   0  0  0  0  0  0  0  0  0  0  0  0
    2.2534   -0.3197    1.5616 H   0  0  0  0  0  0  0  0  0  0  0  0
    1.6549   -3.5965    1.3353 C   0  0  0  0  0  0  0  0  0  0  0  0
    1.2803   -3.5473    0.3136 H   0  0  0  0  0  0  0  0  0  0  0  0
    1.0794   -4.3286    1.8980 H   0  0  0  0  0  0  0  0  0  0  0  0
    2.6984   -3.9057    1.3171 H   0  0  0  0  0  0  0  0  0  0  0  0
    2.0315   -2.3047    3.3308 C   0  0  0  0  0  0  0  0  0  0  0  0
    2.0120   -1.3031    3.7562 H   0  0  0  0  0  0  0  0  0  0  0  0
    3.0547   -2.6760    3.3455 H   0  0  0  0  0  0  0  0  0  0  0  0
    1.4084   -2.9646    3.9316 H   0  0  0  0  0  0  0  0  0  0  0  0
    0.5292    0.8809    2.0763 H   0  0  0  0  0  0  0  0  0  0  0  0
   -0.4637   -3.0428   -1.6638 C   0  0  0  0  0  0  0  0  0  0  0  0
    0.4237   -2.2937   -1.2449 O   0  0  0  0  0  0  0  0  0  0  0  0
   -1.7002   -3.0408   -1.1400 N   0  0  0  0  0  0  0  0  0  0  0  0
   -1.9674   -2.2530   -0.5381 H   0  0  0  0  0  0  0  0  0  0  0  0
   -2.4362   -3.5758   -1.5648 H   0  0  0  0  0  0  0  0  0  0  0  0
   -0.1973   -3.9802   -2.6093 N   0  0  0  0  0  0  0  0  0  0  0  0
   -0.9307   -4.5083   -3.0462 H   0  0  0  0  0  0  0  0  0  0  0  0
    0.6958   -3.9506   -3.0684 H   0  0  0  0  0  0  0  0  0  0  0  0
   -0.4083    2.8267    1.0360 C   0  0  0  0  0  0  0  0  0  0  0  0
    0.3848    1.9097    0.7732 O   0  0  0  0  0  0  0  0  0  0  0  0
   -0.8433    3.0249    2.2997 N   0  0  0  0  0  0  0  0  0  0  0  0
   -0.4460    2.4741    3.0429 H   0  0  0  0  0  0  0  0  0  0  0  0
   -1.4192    3.8101    2.5417 H   0  0  0  0  0  0  0  0  0  0  0  0
   -0.8560    3.6647    0.0921 N   0  0  0  0  0  0  0  0  0  0  0  0
   -1.5594    4.3488    0.3035 H   0  0  0  0  0  0  0  0  0  0  0  0
   -0.6805    3.4339   -0.8881 H   0  0  0  0  0  0  0  0  0  0  0  0
    0.9695    2.7636   -2.6461 C   0  0  0  0  0  0  0  0  0  0  0  0
   -0.2557    2.8276   -2.5041 O   0  0  0  0  0  0  0  0  0  0  0  0
    1.7585    2.2301   -1.6946 N   0  0  0  0  0  0  0  0  0  0  0  0
    1.3343    2.0256   -0.7887 H   0  0  0  0  0  0  0  0  0  0  0  0
    2.7583    2.2934   -1.7548 H   0  0  0  0  0  0  0  0  0  0  0  0
    1.5663    3.2040   -3.7746 N   0  0  0  0  0  0  0  0  0  0  0  0
    2.5526    3.1139   -3.9342 H   0  0  0  0  0  0  0  0  0  0  0  0
    0.9857    3.5460   -4.5194 H   0  0  0  0  0  0  0  0  0  0  0  0
   -2.0661    0.2513   -0.5133 C   0  0  0  0  0  0  0  0  0  0  0  0
   -2.2749   -0.7091    0.2317 O   0  0  0  0  0  0  0  0  0  0  0  0
   -1.0679    0.2765   -1.4098 N   0  0  0  0  0  0  0  0  0  0  0  0
   -0.3801   -0.4645   -1.3863 H   0  0  0  0  0  0  0  0  0  0  0  0
   -0.8361    1.1387   -1.8873 H   0  0  0  0  0  0  0  0  0  0  0  0
   -2.8459    1.3677   -0.4659 N   0  0  0  0  0  0  0  0  0  0  0  0
   -2.7862    2.0312   -1.2192 H   0  0  0  0  0  0  0  0  0  0  0  0
   -3.7238    1.2899    0.0183 H   0  0  0  0  0  0  0  0  0  0  0  0
  1  2  1  0  0  0  0
  2  3  1  0  0  0  0
  2  4  1  0  0  0  0
  2  5  1  0  0  0  0
  5  6  1  0  0  0  0
  5  7  1  0  0  0  0
  5  8  1  0  0  0  0
  8  9  1  0  0  0  0
  9 10  1  0  0  0  0
  9 11  1  0  0  0  0
  9 12  1  0  0  0  0
  8 13  1  0  0  0  0
 13 14  1  0  0  0  0
 13 15  1  0  0  0  0
 13 16  1  0  0  0  0
  8 17  1  0  0  0  0
 17 18  1  0  0  0  0
 17 19  1  0  0  0  0
 17 20  1  0  0  0  0
  1 21  1  0  0  0  0
 22 23  4  0  0  0  0
 22 24  4  0  0  0  0
 24 25  1  0  0  0  0
 24 26  1  0  0  0  0
 22 27  1  0  0  0  0
 27 28  1  0  0  0  0
 27 29  1  0  0  0  0
 30 31  4  0  0  0  0
 30 32  4  0  0  0  0
 32 33  1  0  0  0  0
 32 34  1  0  0  0  0
 30 35  4  0  0  0  0
 35 36  1  0  0  0  0
 35 37  1  0  0  0  0
 38 39  4  0  0  0  0
 38 40  4  0  0  0  0
 40 41  1  0  0  0  0
 40 42  1  0  0  0  0
 38 43  4  0  0  0  0
 43 44  1  0  0  0  0
 43 45  1  0  0  0  0
 46 47  4  0  0  0  0
 46 48  4  0  0  0  0
 48 49  1  0  0  0  0
 48 50  1  0  0  0  0
 46 51  1  0  0  0  0
 51 52  1  0  0  0  0
 51 53  1  0  0  0  0
M  CHG  1   1   1
M  END
