53
 xtb: 6.6.1 (unknown-commit)
O            2.97921258578441       -0.64994857652814       -0.56895446349030
C            2.69099912433594        0.55195681604601       -1.21702205157861
H            3.52710823778456        1.23640898575417       -1.01541714902232
H            2.64314710034765        0.41393633898924       -2.30717696236884
C            1.34699533707581        1.17632642842034       -0.80288381900547
H            0.54648834223311        0.46789303834856       -1.01081563480767
H            1.19616691735104        2.07529003248930       -1.41099643360678
N            1.22720243914206        1.56138111487953        0.62945880043735
C            1.12751616906950        0.36136395451163        1.47805260044863
H            0.25915192281245       -0.20972106044236        1.16709950735018
H            1.02608461039020        0.68021192830652        2.51093069261565
H            2.02787697174963       -0.24062365067479        1.35275556173576
C           -0.01360107909662        2.33637752302066        0.79812729960021
H           -0.84858890577696        1.72359213642253        0.46378260332398
H            0.02772132171574        3.25306665866121        0.21057276068628
H           -0.12449806953780        2.58476428574027        1.85074102700129
C            2.36288677643528        2.37651417175888        1.08618365920659
H            2.49533431216745        3.24410246220998        0.43487331739546
H            3.27571230897723        1.78886149615952        1.09165864192816
H            2.15428239251486        2.71753419791427        2.09977702821115
H            2.33175810938417       -1.30512162050769       -0.90763333641018
C            0.22799507484809       -2.82789401045428       -0.88893163260806
O            0.95291887421963       -2.09182758166314       -1.56416980002304
N            0.61577362613218       -3.22857885737160        0.35205197976696
H            1.59308618858711       -3.07539061030313        0.60026269339653
H            0.14483990173233       -3.96578737579142        0.82126341734194
N           -0.95885007268276       -3.25810455475110       -1.32927771947228
H           -1.55899683794392       -3.78313488731446       -0.72587083330721
H           -1.35009917562409       -2.83254355509173       -2.16954330906297
C            0.83381451320185        2.97525538689985        4.97976925495641
O            0.85527052168795        2.58217486964053        3.82162665591443
N            1.60779214763535        2.40740365016411        5.95017615604085
H            2.10803090249695        1.58124508351076        5.73473857912670
H            1.55137212997212        2.71871571438878        6.90110338127022
N            0.03513997425998        4.00483356623226        5.37702709344134
H            0.03482716056691        4.34823541014712        6.31097211505200
H           -0.45705639722692        4.52769181750022        4.66941055727740
C           -1.20333024016755       -1.48030856390008       -4.37757917835523
O           -1.99679191115726       -1.90011410754433       -3.53360988117160
N            0.09149953966456       -1.26153055889077       -4.09387963055878
H            0.44306283095365       -1.55211984593590       -3.18486755063274
H            0.73391021511384       -1.02089880880491       -4.82027005687197
N           -1.62066982689152       -1.16814930259061       -5.62754818935881
H           -1.00299323419137       -0.90627642135407       -6.35397957062315
H           -2.59032806407097       -1.37203398447723       -5.86518837775422
C           -2.71541138304703       -0.52548592858302       -0.13304176916182
O           -1.54033313103712       -0.18064000536779       -0.10857760455573
N           -3.47066427304995       -0.53445307118141        1.00594098871319
H           -3.07858762473448       -0.08791969221761        1.83022647692162
H           -4.45866635790907       -0.63569211393669        0.97488219473278
N           -3.34869201424548       -0.91676781509558       -1.25335160428689
H           -4.27810162679497       -1.29799676944682       -1.19623925845279
H           -2.81505109162646       -1.12287326493200       -2.08546420619849
