 xtb: 6.6.1 (unknown-commit)
          01102418333D

 53 48  0     0  0            999 V2000
    2.9851   -0.6436   -0.5765 O   0  0  0  0  0  0  0  0  0  0  0  0
    2.6968    0.5593   -1.2204 C   0  0  0  0  0  0  0  0  0  0  0  0
    3.5287    1.2384   -1.0156 H   0  0  0  0  0  0  0  0  0  0  0  0
    2.6452    0.4169   -2.3083 H   0  0  0  0  0  0  0  0  0  0  0  0
    1.3521    1.1821   -0.8061 C   0  0  0  0  0  0  0  0  0  0  0  0
    0.5482    0.4694   -1.0121 H   0  0  0  0  0  0  0  0  0  0  0  0
    1.1975    2.0771   -1.4117 H   0  0  0  0  0  0  0  0  0  0  0  0
    1.2316    1.5659    0.6263 N   0  0  0  0  0  0  0  0  0  0  0  0
    1.1341    0.3646    1.4740 C   0  0  0  0  0  0  0  0  0  0  0  0
    0.2614   -0.2093    1.1658 H   0  0  0  0  0  0  0  0  0  0  0  0
    1.0278    0.6809    2.5098 H   0  0  0  0  0  0  0  0  0  0  0  0
    2.0302   -0.2391    1.3515 H   0  0  0  0  0  0  0  0  0  0  0  0
   -0.0114    2.3375    0.7955 C   0  0  0  0  0  0  0  0  0  0  0  0
   -0.8475    1.7235    0.4628 H   0  0  0  0  0  0  0  0  0  0  0  0
    0.0278    3.2536    0.2101 H   0  0  0  0  0  0  0  0  0  0  0  0
   -0.1242    2.5847    1.8500 H   0  0  0  0  0  0  0  0  0  0  0  0
    2.3649    2.3829    1.0843 C   0  0  0  0  0  0  0  0  0  0  0  0
    2.4954    3.2462    0.4346 H   0  0  0  0  0  0  0  0  0  0  0  0
    3.2767    1.7914    1.0910 H   0  0  0  0  0  0  0  0  0  0  0  0
    2.1547    2.7189    2.0993 H   0  0  0  0  0  0  0  0  0  0  0  0
    2.3331   -1.3031   -0.9100 H   0  0  0  0  0  0  0  0  0  0  0  0
    0.2394   -2.8252   -0.8931 C   0  0  0  0  0  0  0  0  0  0  0  0
    0.9582   -2.0839   -1.5722 O   0  0  0  0  0  0  0  0  0  0  0  0
    0.6368   -3.2248    0.3451 N   0  0  0  0  0  0  0  0  0  0  0  0
    1.5989   -3.0731    0.5970 H   0  0  0  0  0  0  0  0  0  0  0  0
    0.1523   -3.9657    0.8198 H   0  0  0  0  0  0  0  0  0  0  0  0
   -0.9466   -3.2608   -1.3278 N   0  0  0  0  0  0  0  0  0  0  0  0
   -1.5541   -3.7849   -0.7248 H   0  0  0  0  0  0  0  0  0  0  0  0
   -1.3486   -2.8337   -2.1685 H   0  0  0  0  0  0  0  0  0  0  0  0
    0.8213    2.9709    4.9785 C   0  0  0  0  0  0  0  0  0  0  0  0
    0.8540    2.5773    3.8205 O   0  0  0  0  0  0  0  0  0  0  0  0
    1.4551    2.3171    5.9814 N   0  0  0  0  0  0  0  0  0  0  0  0
    2.0464    1.5391    5.7502 H   0  0  0  0  0  0  0  0  0  0  0  0
    1.5127    2.6939    6.9096 H   0  0  0  0  0  0  0  0  0  0  0  0
    0.1443    4.0855    5.3432 N   0  0  0  0  0  0  0  0  0  0  0  0
    0.0580    4.3703    6.3012 H   0  0  0  0  0  0  0  0  0  0  0  0
   -0.4031    4.5674    4.6533 H   0  0  0  0  0  0  0  0  0  0  0  0
   -1.2160   -1.4833   -4.3739 C   0  0  0  0  0  0  0  0  0  0  0  0
   -2.0042   -1.9094   -3.5256 O   0  0  0  0  0  0  0  0  0  0  0  0
    0.0781   -1.2587   -4.0966 N   0  0  0  0  0  0  0  0  0  0  0  0
    0.4412   -1.5507   -3.1861 H   0  0  0  0  0  0  0  0  0  0  0  0
    0.7289   -1.0184   -4.8217 H   0  0  0  0  0  0  0  0  0  0  0  0
   -1.6427   -1.1717   -5.6209 N   0  0  0  0  0  0  0  0  0  0  0  0
   -1.0103   -0.9064   -6.3531 H   0  0  0  0  0  0  0  0  0  0  0  0
   -2.5962   -1.3745   -5.8622 H   0  0  0  0  0  0  0  0  0  0  0  0
   -2.7084   -0.5290   -0.1256 C   0  0  0  0  0  0  0  0  0  0  0  0
   -1.5331   -0.1816   -0.1091 O   0  0  0  0  0  0  0  0  0  0  0  0
   -3.4564   -0.5348    1.0184 N   0  0  0  0  0  0  0  0  0  0  0  0
   -3.0739   -0.0865    1.8323 H   0  0  0  0  0  0  0  0  0  0  0  0
   -4.4549   -0.6364    0.9798 H   0  0  0  0  0  0  0  0  0  0  0  0
   -3.3465   -0.9277   -1.2397 N   0  0  0  0  0  0  0  0  0  0  0  0
   -4.2772   -1.3014   -1.1907 H   0  0  0  0  0  0  0  0  0  0  0  0
   -2.8157   -1.1261   -2.0825 H   0  0  0  0  0  0  0  0  0  0  0  0
  1  2  1  0  0  0  0
  2  3  1  0  0  0  0
  2  4  1  0  0  0  0
  2  5  1  0  0  0  0
  5  6  1  0  0  0  0
  5  7  1  0  0  0  0
  5  8  1  0  0  0  0
  8  9  1  0  0  0  0
  9 10  1  0  0  0  0
  9 11  1  0  0  0  0
  9 12  1  0  0  0  0
  8 13  1  0  0  0  0
 13 14  1  0  0  0  0
 13 15  1  0  0  0  0
 13 16  1  0  0  0  0
  8 17  1  0  0  0  0
 17 18  1  0  0  0  0
 17 19  1  0  0  0  0
 17 20  1  0  0  0  0
  1 21  1  0  0  0  0
 22 23  4  0  0  0  0
 22 24  1  0  0  0  0
 24 25  1  0  0  0  0
 24 26  1  0  0  0  0
 22 27  4  0  0  0  0
 27 28  1  0  0  0  0
 27 29  1  0  0  0  0
 30 31  2  0  0  0  0
 30 32  4  0  0  0  0
 32 33  1  0  0  0  0
 32 34  1  0  0  0  0
 30 35  4  0  0  0  0
 35 36  1  0  0  0  0
 35 37  1  0  0  0  0
 38 39  4  0  0  0  0
 38 40  4  0  0  0  0
 40 41  1  0  0  0  0
 40 42  1  0  0  0  0
 38 43  4  0  0  0  0
 43 44  1  0  0  0  0
 43 45  1  0  0  0  0
 46 47  2  0  0  0  0
 46 48  1  0  0  0  0
 48 49  1  0  0  0  0
 48 50  1  0  0  0  0
 46 51  4  0  0  0  0
 51 52  1  0  0  0  0
 51 53  1  0  0  0  0
M  CHG  1   1   1
M  END
