 xtb: 6.6.1 (unknown-commit)
          01102415373D

 53 48  0     0  0            999 V2000
   -1.3378    0.3708   -3.4287 O   0  0  0  0  0  0  0  0  0  0  0  0
   -0.8477   -0.6750   -2.6398 C   0  0  0  0  0  0  0  0  0  0  0  0
   -1.2423   -1.5998   -3.0656 H   0  0  0  0  0  0  0  0  0  0  0  0
    0.2479   -0.7240   -2.7016 H   0  0  0  0  0  0  0  0  0  0  0  0
   -1.1835   -0.5320   -1.1497 C   0  0  0  0  0  0  0  0  0  0  0  0
   -0.8855    0.4721   -0.8475 H   0  0  0  0  0  0  0  0  0  0  0  0
   -0.6174   -1.2737   -0.5819 H   0  0  0  0  0  0  0  0  0  0  0  0
   -2.6143   -0.6956   -0.7689 N   0  0  0  0  0  0  0  0  0  0  0  0
   -3.4374    0.3518   -1.3926 C   0  0  0  0  0  0  0  0  0  0  0  0
   -3.1187    1.3267   -1.0267 H   0  0  0  0  0  0  0  0  0  0  0  0
   -4.4857    0.2018   -1.1412 H   0  0  0  0  0  0  0  0  0  0  0  0
   -3.3104    0.3288   -2.4740 H   0  0  0  0  0  0  0  0  0  0  0  0
   -2.7016   -0.5767    0.6983 C   0  0  0  0  0  0  0  0  0  0  0  0
   -2.3058    0.3871    1.0217 H   0  0  0  0  0  0  0  0  0  0  0  0
   -2.1125   -1.3741    1.1491 H   0  0  0  0  0  0  0  0  0  0  0  0
   -3.7381   -0.6617    1.0172 H   0  0  0  0  0  0  0  0  0  0  0  0
   -3.0995   -2.0296   -1.1521 C   0  0  0  0  0  0  0  0  0  0  0  0
   -3.1430   -2.1247   -2.2340 H   0  0  0  0  0  0  0  0  0  0  0  0
   -4.0976   -2.1900   -0.7489 H   0  0  0  0  0  0  0  0  0  0  0  0
   -2.4201   -2.7757   -0.7410 H   0  0  0  0  0  0  0  0  0  0  0  0
   -0.9250    1.1973   -3.1061 H   0  0  0  0  0  0  0  0  0  0  0  0
    4.1168   -0.3663    1.5650 C   0  0  0  0  0  0  0  0  0  0  0  0
    2.9579   -0.6976    1.3211 O   0  0  0  0  0  0  0  0  0  0  0  0
    5.1610   -1.1855    1.3142 N   0  0  0  0  0  0  0  0  0  0  0  0
    4.9903   -2.0406    0.8152 H   0  0  0  0  0  0  0  0  0  0  0  0
    6.1120   -0.8824    1.4206 H   0  0  0  0  0  0  0  0  0  0  0  0
    4.4122    0.8335    2.1093 N   0  0  0  0  0  0  0  0  0  0  0  0
    5.3493    1.0941    2.3561 H   0  0  0  0  0  0  0  0  0  0  0  0
    3.6617    1.4515    2.3653 H   0  0  0  0  0  0  0  0  0  0  0  0
   -0.9670    3.4977   -1.7884 C   0  0  0  0  0  0  0  0  0  0  0  0
   -0.3201    2.4628   -1.9851 O   0  0  0  0  0  0  0  0  0  0  0  0
   -1.5672    3.7370   -0.6109 N   0  0  0  0  0  0  0  0  0  0  0  0
   -1.3384    3.1201    0.1787 H   0  0  0  0  0  0  0  0  0  0  0  0
   -1.9693    4.6348   -0.4101 H   0  0  0  0  0  0  0  0  0  0  0  0
   -1.1493    4.4026   -2.7758 N   0  0  0  0  0  0  0  0  0  0  0  0
   -1.6593    5.2552   -2.6373 H   0  0  0  0  0  0  0  0  0  0  0  0
   -0.7274    4.2333   -3.6712 H   0  0  0  0  0  0  0  0  0  0  0  0
    0.2427   -3.5942    1.2937 C   0  0  0  0  0  0  0  0  0  0  0  0
   -0.5720   -2.8615    0.7445 O   0  0  0  0  0  0  0  0  0  0  0  0
   -0.1156   -4.8126    1.7775 N   0  0  0  0  0  0  0  0  0  0  0  0
   -1.0357   -5.1568    1.5690 H   0  0  0  0  0  0  0  0  0  0  0  0
    0.5644   -5.4719    2.1095 H   0  0  0  0  0  0  0  0  0  0  0  0
    1.5395   -3.2590    1.4621 N   0  0  0  0  0  0  0  0  0  0  0  0
    2.1420   -3.8374    2.0194 H   0  0  0  0  0  0  0  0  0  0  0  0
    1.8608   -2.3222    1.2539 H   0  0  0  0  0  0  0  0  0  0  0  0
    0.2321    1.3827    1.3525 C   0  0  0  0  0  0  0  0  0  0  0  0
   -0.8952    1.8866    1.3334 O   0  0  0  0  0  0  0  0  0  0  0  0
    1.1094    1.5270    0.3374 N   0  0  0  0  0  0  0  0  0  0  0  0
    0.7774    1.9259   -0.5364 H   0  0  0  0  0  0  0  0  0  0  0  0
    1.9155    0.9246    0.3137 H   0  0  0  0  0  0  0  0  0  0  0  0
    0.6892    0.6885    2.4198 N   0  0  0  0  0  0  0  0  0  0  0  0
    1.4903    0.0849    2.2879 H   0  0  0  0  0  0  0  0  0  0  0  0
    0.0398    0.4808    3.1576 H   0  0  0  0  0  0  0  0  0  0  0  0
  1  2  1  0  0  0  0
  2  3  1  0  0  0  0
  2  4  1  0  0  0  0
  2  5  1  0  0  0  0
  5  6  1  0  0  0  0
  5  7  1  0  0  0  0
  5  8  1  0  0  0  0
  8  9  1  0  0  0  0
  9 10  1  0  0  0  0
  9 11  1  0  0  0  0
  9 12  1  0  0  0  0
  8 13  1  0  0  0  0
 13 14  1  0  0  0  0
 13 15  1  0  0  0  0
 13 16  1  0  0  0  0
  8 17  1  0  0  0  0
 17 18  1  0  0  0  0
 17 19  1  0  0  0  0
 17 20  1  0  0  0  0
  1 21  1  0  0  0  0
 22 23  2  0  0  0  0
 22 24  4  0  0  0  0
 24 25  1  0  0  0  0
 24 26  1  0  0  0  0
 22 27  4  0  0  0  0
 27 28  1  0  0  0  0
 27 29  1  0  0  0  0
 30 31  4  0  0  0  0
 30 32  4  0  0  0  0
 32 33  1  0  0  0  0
 32 34  1  0  0  0  0
 30 35  4  0  0  0  0
 35 36  1  0  0  0  0
 35 37  1  0  0  0  0
 38 39  2  0  0  0  0
 38 40  1  0  0  0  0
 40 41  1  0  0  0  0
 40 42  1  0  0  0  0
 38 43  4  0  0  0  0
 43 44  1  0  0  0  0
 43 45  1  0  0  0  0
 46 47  4  0  0  0  0
 46 48  4  0  0  0  0
 48 49  1  0  0  0  0
 48 50  1  0  0  0  0
 46 51  4  0  0  0  0
 51 52  1  0  0  0  0
 51 53  1  0  0  0  0
M  CHG  1   1   1
M  END
