  53

 O          3.1769573217       -2.4517716388       -0.9075255470
 C          1.8178542923       -2.7786859976       -0.8675049631
 H          1.3107328566       -2.4811613626       -1.7911714692
 H          1.7607087153       -3.8696979773       -0.7901822806
 C          1.0701348095       -2.2312812410        0.3586245170
 H          1.5998978281       -2.5641932330        1.2532971783
 H          0.0674826740       -2.6639403067        0.3464225524
 N          0.8919375158       -0.7566205794        0.4625006769
 C         -0.0178255493       -0.5159044052        1.5971818283
 H         -0.9833163111       -0.9713074380        1.3784940062
 H         -0.1413191778        0.5563939801        1.7324559247
 H          0.3954092414       -0.9466776942        2.5063902144
 C          0.2639185244       -0.2190930196       -0.7545547927
 H          0.9609064865       -0.2625817638       -1.5884934000
 H         -0.0121512054        0.8184483128       -0.5837427586
 H         -0.6339389604       -0.7969102417       -0.9680712738
 C          2.1529266558       -0.0384273308        0.7152604222
 H          2.7539393075        0.0109350720       -0.1889990521
 H          2.7205233461       -0.5363085612        1.4980410690
 H          1.9192787955        0.9771556344        1.0343039932
 H          3.2601336054       -1.5765371997       -1.3472915111
 C          4.0901930997       -0.3022823402       -3.2277676325
 O          3.2378188749       -0.1766380962       -2.3472332122
 N          4.8007823493       -1.4383137895       -3.3761684099
 H          4.6606877225       -2.1911452165       -2.7214170630
 H          5.5257117111       -1.5291944847       -4.0637181609
 N          4.3519439233        0.6915329330       -4.1024893212
 H          5.0344785018        0.6009055827       -4.8319986706
 H          3.8313274915        1.5469355191       -4.0316557006
 C         -0.2593528577        3.2779086494        0.5285714791
 O          0.2084004545        2.6632135718        1.4890121629
 N          0.4300042763        4.2826387225       -0.0646469438
 H          1.2730184494        4.6021235718        0.3788808892
 H          0.0146294543        4.8667223176       -0.7672975896
 N         -1.4285479720        2.9212105370       -0.0373048186
 H         -1.8625600625        3.5014747207       -0.7323125044
 H         -2.0184632290        2.2514125406        0.4654494989
 C         -3.2966374523       -2.1291508796       -0.1434105011
 O         -2.0790684476       -2.1479093440       -0.0042523986
 N         -3.9473811271       -3.1057775930       -0.8310310159
 H         -3.4239037985       -3.9237747117       -1.0889667508
 H         -4.9480138464       -3.1848803374       -0.8075233682
 N         -4.0722059488       -1.1490287052        0.3684145850
 H         -5.0361136454       -1.0769551989        0.0956780322
 H         -3.6279914249       -0.3148221352        0.7461717378
 C         -2.8564712935        1.3634152049        2.7826398543
 O         -2.9300851809        1.1815681288        1.5640337951
 N         -1.8348113282        2.0287078097        3.3441176064
 H         -1.0525749169        2.3265429308        2.7622807582
 H         -1.7683085939        2.1479698239        4.3379508823
 N         -3.8045223592        0.8800712328        3.6195570937
 H         -3.8067295941        1.0934650462        4.5999771192
 H         -4.6211644087        0.4487171987        3.2253863594
