 xtb: 6.6.1 (unknown-commit)
          01102415423D

 53 48  0     0  0            999 V2000
    3.1769   -2.4518   -0.9075 O   0  0  0  0  0  0  0  0  0  0  0  0
    1.8178   -2.7787   -0.8675 C   0  0  0  0  0  0  0  0  0  0  0  0
    1.3107   -2.4812   -1.7912 H   0  0  0  0  0  0  0  0  0  0  0  0
    1.7607   -3.8697   -0.7902 H   0  0  0  0  0  0  0  0  0  0  0  0
    1.0701   -2.2313    0.3586 C   0  0  0  0  0  0  0  0  0  0  0  0
    1.5999   -2.5642    1.2533 H   0  0  0  0  0  0  0  0  0  0  0  0
    0.0675   -2.6639    0.3464 H   0  0  0  0  0  0  0  0  0  0  0  0
    0.8919   -0.7566    0.4625 N   0  0  0  0  0  0  0  0  0  0  0  0
   -0.0178   -0.5159    1.5972 C   0  0  0  0  0  0  0  0  0  0  0  0
   -0.9833   -0.9713    1.3785 H   0  0  0  0  0  0  0  0  0  0  0  0
   -0.1413    0.5564    1.7325 H   0  0  0  0  0  0  0  0  0  0  0  0
    0.3954   -0.9467    2.5064 H   0  0  0  0  0  0  0  0  0  0  0  0
    0.2639   -0.2191   -0.7546 C   0  0  0  0  0  0  0  0  0  0  0  0
    0.9609   -0.2626   -1.5885 H   0  0  0  0  0  0  0  0  0  0  0  0
   -0.0121    0.8184   -0.5837 H   0  0  0  0  0  0  0  0  0  0  0  0
   -0.6339   -0.7969   -0.9681 H   0  0  0  0  0  0  0  0  0  0  0  0
    2.1529   -0.0384    0.7153 C   0  0  0  0  0  0  0  0  0  0  0  0
    2.7539    0.0109   -0.1890 H   0  0  0  0  0  0  0  0  0  0  0  0
    2.7205   -0.5363    1.4980 H   0  0  0  0  0  0  0  0  0  0  0  0
    1.9193    0.9771    1.0343 H   0  0  0  0  0  0  0  0  0  0  0  0
    3.2601   -1.5766   -1.3473 H   0  0  0  0  0  0  0  0  0  0  0  0
    4.0902   -0.3023   -3.2278 C   0  0  0  0  0  0  0  0  0  0  0  0
    3.2378   -0.1767   -2.3472 O   0  0  0  0  0  0  0  0  0  0  0  0
    4.8008   -1.4383   -3.3762 N   0  0  0  0  0  0  0  0  0  0  0  0
    4.6607   -2.1912   -2.7214 H   0  0  0  0  0  0  0  0  0  0  0  0
    5.5257   -1.5292   -4.0637 H   0  0  0  0  0  0  0  0  0  0  0  0
    4.3519    0.6915   -4.1025 N   0  0  0  0  0  0  0  0  0  0  0  0
    5.0345    0.6009   -4.8320 H   0  0  0  0  0  0  0  0  0  0  0  0
    3.8313    1.5469   -4.0317 H   0  0  0  0  0  0  0  0  0  0  0  0
   -0.2593    3.2779    0.5286 C   0  0  0  0  0  0  0  0  0  0  0  0
    0.2084    2.6632    1.4890 O   0  0  0  0  0  0  0  0  0  0  0  0
    0.4300    4.2826   -0.0647 N   0  0  0  0  0  0  0  0  0  0  0  0
    1.2730    4.6021    0.3789 H   0  0  0  0  0  0  0  0  0  0  0  0
    0.0147    4.8667   -0.7673 H   0  0  0  0  0  0  0  0  0  0  0  0
   -1.4285    2.9212   -0.0373 N   0  0  0  0  0  0  0  0  0  0  0  0
   -1.8625    3.5015   -0.7323 H   0  0  0  0  0  0  0  0  0  0  0  0
   -2.0184    2.2514    0.4655 H   0  0  0  0  0  0  0  0  0  0  0  0
   -3.2966   -2.1291   -0.1434 C   0  0  0  0  0  0  0  0  0  0  0  0
   -2.0791   -2.1479   -0.0042 O   0  0  0  0  0  0  0  0  0  0  0  0
   -3.9474   -3.1058   -0.8310 N   0  0  0  0  0  0  0  0  0  0  0  0
   -3.4239   -3.9238   -1.0889 H   0  0  0  0  0  0  0  0  0  0  0  0
   -4.9480   -3.1849   -0.8075 H   0  0  0  0  0  0  0  0  0  0  0  0
   -4.0722   -1.1490    0.3684 N   0  0  0  0  0  0  0  0  0  0  0  0
   -5.0361   -1.0769    0.0957 H   0  0  0  0  0  0  0  0  0  0  0  0
   -3.6280   -0.3148    0.7462 H   0  0  0  0  0  0  0  0  0  0  0  0
   -2.8565    1.3634    2.7826 C   0  0  0  0  0  0  0  0  0  0  0  0
   -2.9301    1.1816    1.5640 O   0  0  0  0  0  0  0  0  0  0  0  0
   -1.8348    2.0287    3.3441 N   0  0  0  0  0  0  0  0  0  0  0  0
   -1.0526    2.3266    2.7623 H   0  0  0  0  0  0  0  0  0  0  0  0
   -1.7683    2.1480    4.3380 H   0  0  0  0  0  0  0  0  0  0  0  0
   -3.8045    0.8801    3.6196 N   0  0  0  0  0  0  0  0  0  0  0  0
   -3.8067    1.0935    4.6000 H   0  0  0  0  0  0  0  0  0  0  0  0
   -4.6212    0.4487    3.2254 H   0  0  0  0  0  0  0  0  0  0  0  0
  1  2  1  0  0  0  0
  2  3  1  0  0  0  0
  2  4  1  0  0  0  0
  2  5  1  0  0  0  0
  5  6  1  0  0  0  0
  5  7  1  0  0  0  0
  5  8  1  0  0  0  0
  8  9  1  0  0  0  0
  9 10  1  0  0  0  0
  9 11  1  0  0  0  0
  9 12  1  0  0  0  0
  8 13  1  0  0  0  0
 13 14  1  0  0  0  0
 13 15  1  0  0  0  0
 13 16  1  0  0  0  0
  8 17  1  0  0  0  0
 17 18  1  0  0  0  0
 17 19  1  0  0  0  0
 17 20  1  0  0  0  0
  1 21  1  0  0  0  0
 22 23  4  0  0  0  0
 22 24  4  0  0  0  0
 24 25  1  0  0  0  0
 24 26  1  0  0  0  0
 22 27  4  0  0  0  0
 27 28  1  0  0  0  0
 27 29  1  0  0  0  0
 30 31  4  0  0  0  0
 30 32  4  0  0  0  0
 32 33  1  0  0  0  0
 32 34  1  0  0  0  0
 30 35  4  0  0  0  0
 35 36  1  0  0  0  0
 35 37  1  0  0  0  0
 38 39  2  0  0  0  0
 38 40  1  0  0  0  0
 40 41  1  0  0  0  0
 40 42  1  0  0  0  0
 38 43  4  0  0  0  0
 43 44  1  0  0  0  0
 43 45  1  0  0  0  0
 46 47  4  0  0  0  0
 46 48  4  0  0  0  0
 48 49  1  0  0  0  0
 48 50  1  0  0  0  0
 46 51  4  0  0  0  0
 51 52  1  0  0  0  0
 51 53  1  0  0  0  0
M  CHG  1   1   1
M  END
