  53

 O         -2.2534246563       -0.6765096811        2.3369301838
 C         -1.2238697726       -1.4666713217        1.8124988832
 H         -0.6102183662       -1.7748253435        2.6615721401
 H         -1.6321345917       -2.3778977411        1.3514906960
 C         -0.4001742528       -0.7623814850        0.7290397205
 H         -1.1035613142       -0.3356300754        0.0122413339
 H          0.2298983461       -1.4895792467        0.2115639471
 N          0.4969687967        0.3277005494        1.1917932104
 C         -0.2285948077        1.3473167404        1.9635351424
 H         -1.0278430632        1.7675449274        1.3566000912
 H          0.4723822406        2.1321531955        2.2438420057
 H         -0.6708172942        0.9071857311        2.8537229216
 C          1.0900815975        0.9666796202        0.0047356333
 H          0.3069697397        1.3974717087       -0.6151353844
 H          1.6314721846        0.2123451282       -0.5647974011
 H          1.7715922907        1.7483924300        0.3354628181
 C          1.6002172898       -0.2142163163        1.9998722186
 H          2.1339931769       -0.9584203825        1.4115652122
 H          1.2195424402       -0.6679457543        2.9107370174
 H          2.2706904622        0.6036835281        2.2592160735
 H         -2.8246818535       -0.3945010120        1.5971821197
 C          2.1042785508       -2.5833190721       -1.7732474365
 O          2.0309234905       -1.8925120821       -0.7638586267
 N          3.0625528920       -3.5358466874       -1.9141012962
 H          3.7922368689       -3.5741181698       -1.2247265125
 H          3.2190142987       -4.0036954305       -2.7882335234
 N          1.2520058121       -2.4432492002       -2.8137519521
 H          1.2389298711       -3.1278785948       -3.5485264292
 H          0.4173054777       -1.8764748375       -2.6947722737
 C          3.3336718193        3.6117281759        2.6574191944
 O          2.5740871881        2.7939478613        2.1576706381
 N          3.5404400768        3.6822321826        3.9943545348
 H          3.1092110523        2.9969032927        4.5877873498
 H          4.2192954376        4.2999906143        4.3991628905
 N          4.0239833486        4.5071850402        1.9118782500
 H          4.5869178217        5.2273684146        2.3251080693
 H          3.8534928412        4.5444923887        0.9234130165
 C         -1.2368309758        0.3816419319       -2.8278012970
 O         -1.1270038138       -0.8283110281       -2.6229371569
 N         -0.5658573514        0.9856082415       -3.8354326876
 H         -0.0197545368        0.4181504324       -4.4585920839
 H         -0.6865675361        1.9569666966       -4.0558455194
 N         -1.9586784438        1.1803925158       -2.0133780087
 H         -2.1980194757        2.1128307838       -2.3016438765
 H         -2.5757586345        0.7274477532       -1.3308029104
 C         -3.9624065924       -1.3145248097       -0.5179072001
 O         -3.4561009727       -0.2538184830       -0.1287617507
 N         -5.0498538221       -1.8287699826        0.0957782700
 H         -5.4824698539       -1.3000018287        0.8324068376
 H         -5.5109713385       -2.6567451188       -0.2334364735
 N         -3.4423195306       -2.0084553862       -1.5402878465
 H         -3.8430126536       -2.8749261463       -1.8483023353
 H         -2.5802631934       -1.6766991199       -1.9741915806
