 xtb: 6.6.1 (unknown-commit)
          01102415413D

 53 48  0     0  0            999 V2000
    1.3052   -1.0888    0.0364 O   0  0  0  0  0  0  0  0  0  0  0  0
    1.1100   -1.9913   -1.0163 C   0  0  0  0  0  0  0  0  0  0  0  0
    1.8868   -1.7910   -1.7592 H   0  0  0  0  0  0  0  0  0  0  0  0
    1.2498   -3.0213   -0.6529 H   0  0  0  0  0  0  0  0  0  0  0  0
   -0.2929   -1.9412   -1.6326 C   0  0  0  0  0  0  0  0  0  0  0  0
   -1.0107   -1.9812   -0.8083 H   0  0  0  0  0  0  0  0  0  0  0  0
   -0.4228   -2.8221   -2.2648 H   0  0  0  0  0  0  0  0  0  0  0  0
   -0.6120   -0.7403   -2.4466 N   0  0  0  0  0  0  0  0  0  0  0  0
   -0.4727    0.4922   -1.6509 C   0  0  0  0  0  0  0  0  0  0  0  0
   -1.0076    0.3881   -0.7097 H   0  0  0  0  0  0  0  0  0  0  0  0
   -0.8759    1.3198   -2.2314 H   0  0  0  0  0  0  0  0  0  0  0  0
    0.5797    0.6863   -1.4594 H   0  0  0  0  0  0  0  0  0  0  0  0
   -2.0110   -0.8375   -2.8956 C   0  0  0  0  0  0  0  0  0  0  0  0
   -2.6758   -0.8708   -2.0347 H   0  0  0  0  0  0  0  0  0  0  0  0
   -2.1573   -1.7338   -3.4958 H   0  0  0  0  0  0  0  0  0  0  0  0
   -2.2450    0.0397   -3.4977 H   0  0  0  0  0  0  0  0  0  0  0  0
    0.2528   -0.6480   -3.6343 C   0  0  0  0  0  0  0  0  0  0  0  0
    0.2271   -1.5790   -4.1957 H   0  0  0  0  0  0  0  0  0  0  0  0
    1.2722   -0.4107   -3.3406 H   0  0  0  0  0  0  0  0  0  0  0  0
   -0.1136    0.1713   -4.2531 H   0  0  0  0  0  0  0  0  0  0  0  0
    0.4516   -1.0313    0.5463 H   0  0  0  0  0  0  0  0  0  0  0  0
    3.4020    1.3740   -1.7091 C   0  0  0  0  0  0  0  0  0  0  0  0
    2.4638    1.1970   -2.4807 O   0  0  0  0  0  0  0  0  0  0  0  0
    4.4130    2.2328   -2.0026 N   0  0  0  0  0  0  0  0  0  0  0  0
    4.4580    2.6082   -2.9332 H   0  0  0  0  0  0  0  0  0  0  0  0
    5.2459    2.2732   -1.4439 H   0  0  0  0  0  0  0  0  0  0  0  0
    3.4750    0.7519   -0.5172 N   0  0  0  0  0  0  0  0  0  0  0  0
    4.2278    0.9254    0.1225 H   0  0  0  0  0  0  0  0  0  0  0  0
    2.7223    0.1378   -0.2276 H   0  0  0  0  0  0  0  0  0  0  0  0
   -0.3688    2.9603   -4.5494 C   0  0  0  0  0  0  0  0  0  0  0  0
   -1.0802    2.0038   -4.2649 O   0  0  0  0  0  0  0  0  0  0  0  0
   -0.8641    4.0391   -5.2100 N   0  0  0  0  0  0  0  0  0  0  0  0
   -1.8001    3.9779   -5.5694 H   0  0  0  0  0  0  0  0  0  0  0  0
   -0.2677    4.7596   -5.5739 H   0  0  0  0  0  0  0  0  0  0  0  0
    0.9419    3.0193   -4.2260 N   0  0  0  0  0  0  0  0  0  0  0  0
    1.4670    3.8581   -4.3931 H   0  0  0  0  0  0  0  0  0  0  0  0
    1.3652    2.3107   -3.6373 H   0  0  0  0  0  0  0  0  0  0  0  0
   -1.1899   -1.1304    2.3925 C   0  0  0  0  0  0  0  0  0  0  0  0
   -1.1014   -1.0035    1.1629 O   0  0  0  0  0  0  0  0  0  0  0  0
   -0.1112   -1.2822    3.1819 N   0  0  0  0  0  0  0  0  0  0  0  0
    0.8110   -1.2940    2.7856 H   0  0  0  0  0  0  0  0  0  0  0  0
   -0.2405   -1.3596    4.1789 H   0  0  0  0  0  0  0  0  0  0  0  0
   -2.3713   -1.1567    3.0318 N   0  0  0  0  0  0  0  0  0  0  0  0
   -2.3738   -1.1975    4.0420 H   0  0  0  0  0  0  0  0  0  0  0  0
   -3.2157   -0.9609    2.5267 H   0  0  0  0  0  0  0  0  0  0  0  0
   -1.7555   -1.5953    6.9298 C   0  0  0  0  0  0  0  0  0  0  0  0
   -1.4932   -1.3771    5.7546 O   0  0  0  0  0  0  0  0  0  0  0  0
   -2.8619   -2.2818    7.3070 N   0  0  0  0  0  0  0  0  0  0  0  0
   -3.4090   -2.7329    6.5953 H   0  0  0  0  0  0  0  0  0  0  0  0
   -3.0074   -2.5655    8.2588 H   0  0  0  0  0  0  0  0  0  0  0  0
   -0.9584   -1.1663    7.9376 N   0  0  0  0  0  0  0  0  0  0  0  0
   -1.2394   -1.2328    8.8989 H   0  0  0  0  0  0  0  0  0  0  0  0
   -0.2018   -0.5454    7.7111 H   0  0  0  0  0  0  0  0  0  0  0  0
  1  2  1  0  0  0  0
  2  3  1  0  0  0  0
  2  4  1  0  0  0  0
  2  5  1  0  0  0  0
  5  6  1  0  0  0  0
  5  7  1  0  0  0  0
  5  8  1  0  0  0  0
  8  9  1  0  0  0  0
  9 10  1  0  0  0  0
  9 11  1  0  0  0  0
  9 12  1  0  0  0  0
  8 13  1  0  0  0  0
 13 14  1  0  0  0  0
 13 15  1  0  0  0  0
 13 16  1  0  0  0  0
  8 17  1  0  0  0  0
 17 18  1  0  0  0  0
 17 19  1  0  0  0  0
 17 20  1  0  0  0  0
  1 21  1  0  0  0  0
 22 23  2  0  0  0  0
 22 24  1  0  0  0  0
 24 25  1  0  0  0  0
 24 26  1  0  0  0  0
 22 27  4  0  0  0  0
 27 28  1  0  0  0  0
 27 29  1  0  0  0  0
 30 31  2  0  0  0  0
 30 32  1  0  0  0  0
 32 33  1  0  0  0  0
 32 34  1  0  0  0  0
 30 35  4  0  0  0  0
 35 36  1  0  0  0  0
 35 37  1  0  0  0  0
 38 39  4  0  0  0  0
 38 40  4  0  0  0  0
 40 41  1  0  0  0  0
 40 42  1  0  0  0  0
 38 43  4  0  0  0  0
 43 44  1  0  0  0  0
 43 45  1  0  0  0  0
 46 47  2  0  0  0  0
 46 48  4  0  0  0  0
 48 49  1  0  0  0  0
 48 50  1  0  0  0  0
 46 51  4  0  0  0  0
 51 52  1  0  0  0  0
 51 53  1  0  0  0  0
M  CHG  1   1   1
M  END
