  53

 O          0.9738892945       -0.2496512993        2.5176500808
 C         -0.3736865219       -0.2683824450        2.1201424933
 H         -0.9389350838       -0.6137678075        2.9877530671
 H         -0.7169257148        0.7444119155        1.8797328829
 C         -0.6368200282       -1.1255153993        0.8800707414
 H          0.1766656644       -0.9610998132        0.1718977322
 H         -1.5768226850       -0.8122058998        0.4205035020
 N         -0.7377204878       -2.5945295511        1.0943755010
 C          0.4813830368       -3.1135258494        1.7319273941
 H          1.3228667563       -2.9195341404        1.0654753558
 H          0.3892632829       -4.1847869008        1.8978429135
 H          0.6542922295       -2.6118998787        2.6809440483
 C         -0.8865019647       -3.2089758643       -0.2367683400
 H         -0.0086937226       -2.9760748174       -0.8377588634
 H         -1.7803894330       -2.8114660290       -0.7139958379
 H         -0.9767151075       -4.2889957699       -0.1416855944
 C         -1.9280539538       -2.9188353598        1.8948256044
 H         -1.8207432712       -2.5491529127        2.9112684590
 H         -2.0656241086       -3.9976596503        1.9326432851
 H         -2.8004842640       -2.4593923016        1.4298982830
 H          1.4927731418        0.1903620543        1.8282968483
 C          2.7853949023       -0.9297383240       -0.6726931324
 O          1.9999479382       -1.8686587275       -0.6552301187
 N          3.1441286122       -0.2846866084       -1.8036962341
 H          2.6345626813       -0.5213188905       -2.6382199630
 H          3.4966205717        0.6591343279       -1.7383271900
 N          3.3392598128       -0.4391527577        0.4793418625
 H          4.1226365283        0.1867627534        0.4012077473
 H          3.3400375651       -1.0492100518        1.2809918904
 C          2.5629402494        2.6823215764        0.2899366517
 O          2.8187989576        2.4019746607       -0.8799923562
 N          3.4935206493        3.2563730662        1.0915909648
 H          4.3407877318        3.5887099274        0.6646794718
 H          3.2630755073        3.6049032139        2.0045920283
 N          1.3917007894        2.3446401559        0.8722608486
 H          1.1521850066        2.7348162957        1.7672023649
 H          0.6198189918        2.0417286273        0.2693154680
 C         -0.5005678840        1.3939933291       -1.9923333102
 O         -0.7102929776        1.4569216523       -0.7729930527
 N          0.7004487816        1.6521402656       -2.5266306304
 H          1.4694272060        1.9802244450       -1.9338678383
 H          0.8181309538        1.7005112341       -3.5223921891
 N         -1.4843786161        1.0320221119       -2.8470404331
 H         -1.3277445952        0.9515979120       -3.8345899069
 H         -2.3827493953        0.7738660649       -2.4777417295
 C         -4.1276113846        0.0431897971       -0.1367084079
 O         -3.4882830932       -1.0030073956       -0.1007911592
 N         -5.4705456835        0.0634574903        0.0478263264
 H         -5.9556451221       -0.8149130546        0.0969406505
 H         -6.0155691336        0.8936830776       -0.0978131694
 N         -3.5404904411        1.2401842675       -0.3713817546
 H         -4.0603028488        2.0910727342       -0.2509058808
 H         -2.5225040222        1.3080669379       -0.3684415534
