  53

 O         -0.2246274623       -2.4605155332        3.6738889734
 C         -0.0213392454       -2.7558820208        2.3146277487
 H          0.1336901698       -3.8304362042        2.1622061688
 H         -0.9442415644       -2.4803071607        1.8018191193
 C          1.1780409309       -2.0338758088        1.6852289411
 H          1.2393378120       -2.3436645041        0.6373518921
 H          2.0965061071       -2.3327132319        2.1968244845
 N          1.1185225964       -0.5478660849        1.6977399899
 C          2.1679371044       -0.0450811276        0.7932263326
 H          3.1478408082       -0.3527182996        1.1523741963
 H          2.1151562197        1.0423926428        0.7696459902
 H          2.0112220216       -0.4551454766       -0.2015333049
 C          1.3555449546        0.0017416998        3.0428359466
 H          2.3374978791       -0.2976546433        3.4044904839
 H          0.5926955468       -0.3574593704        3.7300902858
 H          1.3138579005        1.0887165480        2.9760608137
 C         -0.1842352246       -0.0584643266        1.2200114941
 H         -0.4454408512       -0.5396748711        0.2800410598
 H         -0.1137291892        1.0192801256        1.0769886740
 H         -0.9542920778       -0.2619037571        1.9595571570
 H          0.3967853617       -2.9540148903        4.2198449467
 C          0.8387161844       -3.0965721365       -2.0686007811
 O          1.3689317228       -2.1923840320       -1.4268667741
 N         -0.4953952529       -3.3011101587       -2.0620682962
 H         -1.0956081505       -2.5760336934       -1.6838229348
 H         -0.9091743494       -3.9496959509       -2.7078412103
 N          1.5752807687       -3.9652073768       -2.8044314297
 H          1.1666948353       -4.7593486136       -3.2618151877
 H          2.5766400692       -3.9106465834       -2.7519176752
 C          0.7884199337        3.9246104335        1.4234777140
 O          1.1284681147        2.7597766500        1.6062147837
 N          0.1370214998        4.3211066185        0.3103231262
 H         -0.2455651092        3.6017707863       -0.3054545888
 H         -0.2716833321        5.2374003783        0.2633551910
 N          1.0627646021        4.8943225318        2.3352511131
 H          0.9082842580        5.8653145429        2.1331762711
 H          1.6678865775        4.6676404139        3.1041770246
 C          0.2398453796        1.5778226510       -1.8534768546
 O         -0.6965929623        2.2201080796       -1.3657475440
 N          0.0957028120        0.3104650828       -2.2715534337
 H         -0.7472971005       -0.1879945278       -1.9852075313
 H          0.9011060155       -0.2659813212       -2.4515536840
 N          1.4737881464        2.1268600299       -1.9813855372
 H          2.1844151682        1.6692904969       -2.5232223444
 H          1.5749784902        3.1123479634       -1.8109440725
 C         -3.1416170157       -0.4346403895       -1.0752434459
 O         -2.0941517771       -1.0862058708       -1.1684095964
 N         -3.1440127267        0.9027810741       -1.0342589143
 H         -2.2668363767        1.4194165000       -1.1503764844
 H         -4.0031920129        1.4201728917       -1.0036245772
 N         -4.3391352389       -1.0586452340       -0.9791617642
 H         -5.2035918815       -0.5523411632       -0.9287904906
 H         -4.3724071023       -2.0611137661       -1.0164865765
