 xtb: 6.6.1 (unknown-commit)
          01102418303D

 53 48  0     0  0            999 V2000
   -0.2246   -2.4605    3.6739 O   0  0  0  0  0  0  0  0  0  0  0  0
   -0.0213   -2.7559    2.3146 C   0  0  0  0  0  0  0  0  0  0  0  0
    0.1337   -3.8304    2.1622 H   0  0  0  0  0  0  0  0  0  0  0  0
   -0.9442   -2.4803    1.8018 H   0  0  0  0  0  0  0  0  0  0  0  0
    1.1780   -2.0339    1.6852 C   0  0  0  0  0  0  0  0  0  0  0  0
    1.2393   -2.3437    0.6374 H   0  0  0  0  0  0  0  0  0  0  0  0
    2.0965   -2.3327    2.1968 H   0  0  0  0  0  0  0  0  0  0  0  0
    1.1185   -0.5479    1.6977 N   0  0  0  0  0  0  0  0  0  0  0  0
    2.1679   -0.0451    0.7932 C   0  0  0  0  0  0  0  0  0  0  0  0
    3.1478   -0.3527    1.1524 H   0  0  0  0  0  0  0  0  0  0  0  0
    2.1152    1.0424    0.7696 H   0  0  0  0  0  0  0  0  0  0  0  0
    2.0112   -0.4552   -0.2015 H   0  0  0  0  0  0  0  0  0  0  0  0
    1.3556    0.0017    3.0428 C   0  0  0  0  0  0  0  0  0  0  0  0
    2.3375   -0.2977    3.4045 H   0  0  0  0  0  0  0  0  0  0  0  0
    0.5927   -0.3575    3.7301 H   0  0  0  0  0  0  0  0  0  0  0  0
    1.3139    1.0887    2.9761 H   0  0  0  0  0  0  0  0  0  0  0  0
   -0.1842   -0.0585    1.2200 C   0  0  0  0  0  0  0  0  0  0  0  0
   -0.4454   -0.5397    0.2800 H   0  0  0  0  0  0  0  0  0  0  0  0
   -0.1137    1.0193    1.0770 H   0  0  0  0  0  0  0  0  0  0  0  0
   -0.9543   -0.2619    1.9596 H   0  0  0  0  0  0  0  0  0  0  0  0
    0.3968   -2.9540    4.2198 H   0  0  0  0  0  0  0  0  0  0  0  0
    0.8387   -3.0966   -2.0686 C   0  0  0  0  0  0  0  0  0  0  0  0
    1.3689   -2.1924   -1.4269 O   0  0  0  0  0  0  0  0  0  0  0  0
   -0.4954   -3.3011   -2.0621 N   0  0  0  0  0  0  0  0  0  0  0  0
   -1.0956   -2.5760   -1.6838 H   0  0  0  0  0  0  0  0  0  0  0  0
   -0.9092   -3.9497   -2.7078 H   0  0  0  0  0  0  0  0  0  0  0  0
    1.5753   -3.9652   -2.8044 N   0  0  0  0  0  0  0  0  0  0  0  0
    1.1667   -4.7594   -3.2618 H   0  0  0  0  0  0  0  0  0  0  0  0
    2.5766   -3.9107   -2.7519 H   0  0  0  0  0  0  0  0  0  0  0  0
    0.7884    3.9246    1.4235 C   0  0  0  0  0  0  0  0  0  0  0  0
    1.1285    2.7598    1.6062 O   0  0  0  0  0  0  0  0  0  0  0  0
    0.1370    4.3211    0.3103 N   0  0  0  0  0  0  0  0  0  0  0  0
   -0.2455    3.6018   -0.3055 H   0  0  0  0  0  0  0  0  0  0  0  0
   -0.2717    5.2374    0.2633 H   0  0  0  0  0  0  0  0  0  0  0  0
    1.0628    4.8943    2.3352 N   0  0  0  0  0  0  0  0  0  0  0  0
    0.9083    5.8653    2.1332 H   0  0  0  0  0  0  0  0  0  0  0  0
    1.6679    4.6676    3.1042 H   0  0  0  0  0  0  0  0  0  0  0  0
    0.2398    1.5778   -1.8535 C   0  0  0  0  0  0  0  0  0  0  0  0
   -0.6966    2.2201   -1.3657 O   0  0  0  0  0  0  0  0  0  0  0  0
    0.0957    0.3105   -2.2716 N   0  0  0  0  0  0  0  0  0  0  0  0
   -0.7473   -0.1880   -1.9852 H   0  0  0  0  0  0  0  0  0  0  0  0
    0.9011   -0.2660   -2.4516 H   0  0  0  0  0  0  0  0  0  0  0  0
    1.4738    2.1268   -1.9814 N   0  0  0  0  0  0  0  0  0  0  0  0
    2.1844    1.6693   -2.5232 H   0  0  0  0  0  0  0  0  0  0  0  0
    1.5750    3.1123   -1.8110 H   0  0  0  0  0  0  0  0  0  0  0  0
   -3.1416   -0.4346   -1.0752 C   0  0  0  0  0  0  0  0  0  0  0  0
   -2.0942   -1.0862   -1.1684 O   0  0  0  0  0  0  0  0  0  0  0  0
   -3.1440    0.9028   -1.0342 N   0  0  0  0  0  0  0  0  0  0  0  0
   -2.2668    1.4194   -1.1504 H   0  0  0  0  0  0  0  0  0  0  0  0
   -4.0032    1.4202   -1.0036 H   0  0  0  0  0  0  0  0  0  0  0  0
   -4.3391   -1.0586   -0.9791 N   0  0  0  0  0  0  0  0  0  0  0  0
   -5.2036   -0.5523   -0.9288 H   0  0  0  0  0  0  0  0  0  0  0  0
   -4.3724   -2.0611   -1.0165 H   0  0  0  0  0  0  0  0  0  0  0  0
  1  2  1  0  0  0  0
  2  3  1  0  0  0  0
  2  4  1  0  0  0  0
  2  5  1  0  0  0  0
  5  6  1  0  0  0  0
  5  7  1  0  0  0  0
  5  8  1  0  0  0  0
  8  9  1  0  0  0  0
  9 10  1  0  0  0  0
  9 11  1  0  0  0  0
  9 12  1  0  0  0  0
  8 13  1  0  0  0  0
 13 14  1  0  0  0  0
 13 15  1  0  0  0  0
 13 16  1  0  0  0  0
  8 17  1  0  0  0  0
 17 18  1  0  0  0  0
 17 19  1  0  0  0  0
 17 20  1  0  0  0  0
  1 21  1  0  0  0  0
 22 23  2  0  0  0  0
 22 24  4  0  0  0  0
 24 25  1  0  0  0  0
 24 26  1  0  0  0  0
 22 27  4  0  0  0  0
 27 28  1  0  0  0  0
 27 29  1  0  0  0  0
 30 31  2  0  0  0  0
 30 32  4  0  0  0  0
 32 33  1  0  0  0  0
 32 34  1  0  0  0  0
 30 35  1  0  0  0  0
 35 36  1  0  0  0  0
 35 37  1  0  0  0  0
 38 39  4  0  0  0  0
 38 40  4  0  0  0  0
 40 41  1  0  0  0  0
 40 42  1  0  0  0  0
 38 43  4  0  0  0  0
 43 44  1  0  0  0  0
 43 45  1  0  0  0  0
 46 47  4  0  0  0  0
 46 48  4  0  0  0  0
 48 49  1  0  0  0  0
 48 50  1  0  0  0  0
 46 51  4  0  0  0  0
 51 52  1  0  0  0  0
 51 53  1  0  0  0  0
M  CHG  1   1   1
M  END
