 xtb: 6.6.1 (unknown-commit)
          01102415413D

 53 48  0     0  0            999 V2000
    1.2721    1.3483   -0.3232 O   0  0  0  0  0  0  0  0  0  0  0  0
    1.0091    1.2249    1.0540 C   0  0  0  0  0  0  0  0  0  0  0  0
    1.6206    0.3964    1.4170 H   0  0  0  0  0  0  0  0  0  0  0  0
    1.3211    2.1350    1.5777 H   0  0  0  0  0  0  0  0  0  0  0  0
   -0.4792    0.9930    1.3542 C   0  0  0  0  0  0  0  0  0  0  0  0
   -1.0621    1.5405    0.6080 H   0  0  0  0  0  0  0  0  0  0  0  0
   -0.7135    1.3835    2.3456 H   0  0  0  0  0  0  0  0  0  0  0  0
   -0.9273   -0.4231    1.3057 N   0  0  0  0  0  0  0  0  0  0  0  0
   -0.5867   -1.0405    0.0141 C   0  0  0  0  0  0  0  0  0  0  0  0
   -1.0577   -0.4832   -0.7893 H   0  0  0  0  0  0  0  0  0  0  0  0
   -0.9483   -2.0683    0.0206 H   0  0  0  0  0  0  0  0  0  0  0  0
    0.4920   -1.0532   -0.1158 H   0  0  0  0  0  0  0  0  0  0  0  0
   -2.3923   -0.4492    1.4500 C   0  0  0  0  0  0  0  0  0  0  0  0
   -2.6866   -0.0259    2.4085 H   0  0  0  0  0  0  0  0  0  0  0  0
   -2.7348   -1.4808    1.3937 H   0  0  0  0  0  0  0  0  0  0  0  0
   -2.8461    0.1307    0.6472 H   0  0  0  0  0  0  0  0  0  0  0  0
   -0.3252   -1.2159    2.3893 C   0  0  0  0  0  0  0  0  0  0  0  0
   -0.5418   -0.7646    3.3548 H   0  0  0  0  0  0  0  0  0  0  0  0
    0.7494   -1.2924    2.2468 H   0  0  0  0  0  0  0  0  0  0  0  0
   -0.7385   -2.2241    2.3459 H   0  0  0  0  0  0  0  0  0  0  0  0
    0.9825    2.2463   -0.6032 H   0  0  0  0  0  0  0  0  0  0  0  0
    3.3647   -1.6209    0.0897 C   0  0  0  0  0  0  0  0  0  0  0  0
    2.3503   -1.8317    0.7496 O   0  0  0  0  0  0  0  0  0  0  0  0
    4.3852   -2.5151    0.0507 N   0  0  0  0  0  0  0  0  0  0  0  0
    4.3637   -3.2856    0.6948 H   0  0  0  0  0  0  0  0  0  0  0  0
    5.2650   -2.2901   -0.3770 H   0  0  0  0  0  0  0  0  0  0  0  0
    3.5133   -0.5138   -0.6631 N   0  0  0  0  0  0  0  0  0  0  0  0
    4.3450   -0.3479   -1.1985 H   0  0  0  0  0  0  0  0  0  0  0  0
    2.7772    0.1804   -0.6858 H   0  0  0  0  0  0  0  0  0  0  0  0
   -0.5276    4.5637   -0.4408 C   0  0  0  0  0  0  0  0  0  0  0  0
    0.2609    3.7521   -0.9155 O   0  0  0  0  0  0  0  0  0  0  0  0
   -0.1865    5.8618   -0.2692 N   0  0  0  0  0  0  0  0  0  0  0  0
    0.7388    6.1530   -0.5285 H   0  0  0  0  0  0  0  0  0  0  0  0
   -0.8125    6.5395    0.1246 H   0  0  0  0  0  0  0  0  0  0  0  0
   -1.7629    4.2073   -0.0131 N   0  0  0  0  0  0  0  0  0  0  0  0
   -2.4428    4.9134    0.2070 H   0  0  0  0  0  0  0  0  0  0  0  0
   -2.1168    3.3054   -0.3170 H   0  0  0  0  0  0  0  0  0  0  0  0
   -0.3554   -4.7082    0.9898 C   0  0  0  0  0  0  0  0  0  0  0  0
   -1.1959   -3.8278    1.1231 O   0  0  0  0  0  0  0  0  0  0  0  0
    0.9732   -4.4537    0.9566 N   0  0  0  0  0  0  0  0  0  0  0  0
    1.3162   -3.5009    0.9257 H   0  0  0  0  0  0  0  0  0  0  0  0
    1.6222   -5.1882    0.7407 H   0  0  0  0  0  0  0  0  0  0  0  0
   -0.7087   -6.0132    0.8588 N   0  0  0  0  0  0  0  0  0  0  0  0
   -0.0329   -6.7540    0.8997 H   0  0  0  0  0  0  0  0  0  0  0  0
   -1.6745   -6.2507    1.0012 H   0  0  0  0  0  0  0  0  0  0  0  0
   -1.9922    1.6379   -2.3086 C   0  0  0  0  0  0  0  0  0  0  0  0
   -2.3279    1.6345   -1.1247 O   0  0  0  0  0  0  0  0  0  0  0  0
   -2.8579    1.9866   -3.2873 N   0  0  0  0  0  0  0  0  0  0  0  0
   -3.8226    2.1280   -3.0437 H   0  0  0  0  0  0  0  0  0  0  0  0
   -2.6282    1.8825   -4.2590 H   0  0  0  0  0  0  0  0  0  0  0  0
   -0.7540    1.2622   -2.7047 N   0  0  0  0  0  0  0  0  0  0  0  0
   -0.4514    1.4587   -3.6426 H   0  0  0  0  0  0  0  0  0  0  0  0
   -0.0294    1.2271   -2.0002 H   0  0  0  0  0  0  0  0  0  0  0  0
  1  2  1  0  0  0  0
  2  3  1  0  0  0  0
  2  4  1  0  0  0  0
  2  5  1  0  0  0  0
  5  6  1  0  0  0  0
  5  7  1  0  0  0  0
  5  8  1  0  0  0  0
  8  9  1  0  0  0  0
  9 10  1  0  0  0  0
  9 11  1  0  0  0  0
  9 12  1  0  0  0  0
  8 13  1  0  0  0  0
 13 14  1  0  0  0  0
 13 15  1  0  0  0  0
 13 16  1  0  0  0  0
  8 17  1  0  0  0  0
 17 18  1  0  0  0  0
 17 19  1  0  0  0  0
 17 20  1  0  0  0  0
  1 21  1  0  0  0  0
 22 23  2  0  0  0  0
 22 24  1  0  0  0  0
 24 25  1  0  0  0  0
 24 26  1  0  0  0  0
 22 27  4  0  0  0  0
 27 28  1  0  0  0  0
 27 29  1  0  0  0  0
 30 31  2  0  0  0  0
 30 32  4  0  0  0  0
 32 33  1  0  0  0  0
 32 34  1  0  0  0  0
 30 35  4  0  0  0  0
 35 36  1  0  0  0  0
 35 37  1  0  0  0  0
 38 39  2  0  0  0  0
 38 40  4  0  0  0  0
 40 41  1  0  0  0  0
 40 42  1  0  0  0  0
 38 43  1  0  0  0  0
 43 44  1  0  0  0  0
 43 45  1  0  0  0  0
 46 47  2  0  0  0  0
 46 48  4  0  0  0  0
 48 49  1  0  0  0  0
 48 50  1  0  0  0  0
 46 51  4  0  0  0  0
 51 52  1  0  0  0  0
 51 53  1  0  0  0  0
M  CHG  1   1   1
M  END
