  53

 O         -1.1423327534        0.0548902788       -0.2019402801
 C         -0.4367691824       -0.2285006887        0.9763758809
 H          0.3800291359        0.4947748958        1.0951312829
 H         -1.0946014154       -0.1391901622        1.8461375260
 C          0.2261274305       -1.6116194401        0.9340830552
 H          0.6899817846       -1.7861443719        1.9060854902
 H          1.0017748546       -1.6149200107        0.1653400718
 N         -0.6834037672       -2.7532018662        0.6312423977
 C         -1.9189675382       -2.6782337610        1.4273321388
 H         -1.6763126791       -2.6096498121        2.4863735417
 H         -2.5175713797       -3.5722461141        1.2615014328
 H         -2.5061465286       -1.8063827597        1.1402131849
 C          0.0401831257       -3.9995634179        0.9338034245
 H          0.2691392987       -4.0622895684        1.9958815479
 H          0.9677160349       -4.0120947915        0.3608932468
 H         -0.5638913906       -4.8598144809        0.6511806704
 C         -1.0150933191       -2.7590727757       -0.8059682528
 H         -1.7357394951       -3.5458341502       -1.0175815211
 H         -0.1036646269       -2.9342481494       -1.3740628401
 H         -1.4265483966       -1.7885739896       -1.0775233131
 H         -2.0457011014        0.3465005818        0.0744185890
 C          1.0987596346        0.6422292992       -1.7775538324
 O          1.9340705163        0.6899251144       -0.8604242185
 N          1.0123812300       -0.4476627237       -2.5696719191
 H          1.4903743895       -1.2945329047       -2.2875776983
 H          0.2943051469       -0.5163740572       -3.2668729102
 N          0.3159936756        1.6929021995       -2.0822541119
 H         -0.4444544923        1.5479742993       -2.7238522968
 H          0.1256216631        2.3587953058       -1.3319187242
 C          0.6240127698        3.5689186174        0.8687199824
 O         -0.3543426253        3.2323348507        0.2001434369
 N          1.8055248031        2.9414804651        0.7793608760
 H          1.9104894664        2.1430735366        0.1446923539
 H          2.5990350046        3.2439918983        1.3134512767
 N          0.5362783338        4.5774295761        1.7788304511
 H          1.3600419134        4.9673226755        2.2005238065
 H         -0.2870453834        5.1531035591        1.7600821174
 C          3.3586855448       -2.5742464194       -1.0966963077
 O          2.1519166663       -2.8016949584       -1.2372559680
 N          3.8204781784       -1.3471989045       -0.8233285581
 H          3.1672286086       -0.5545533733       -0.8018446233
 H          4.8044724915       -1.1635540448       -0.7551455922
 N          4.2685123269       -3.5802263483       -1.1499132023
 H          5.2542731738       -3.3913603767       -1.1737809595
 H          3.9600669807       -4.4823307963       -1.4670975549
 C         -3.8668527109        1.7024763123        1.0400775133
 O         -3.4276542650        0.5526610079        0.9657600774
 N         -3.1342450492        2.7892006101        0.7469173242
 H         -2.1499402779        2.7347978142        0.5007478573
 H         -3.5311963899        3.7073904055        0.8292442133
 N         -5.1403897915        1.9281679344        1.4443755653
 H         -5.5503650186        2.8437595647        1.4398850876
 H         -5.7387524189        1.1374035334        1.6017740751
