  53

 O         -2.5242299670        1.7463948674        2.6084464619
 C         -1.9669641202        1.0428961656        1.5308641519
 H         -2.3906838644        1.4083041193        0.5844679175
 H         -0.8820857997        1.1834410139        1.5119379257
 C         -2.3151323007       -0.4340731986        1.7427481029
 H         -3.4021743718       -0.5313510621        1.6977849353
 H         -1.9997253038       -0.7007207565        2.7539182767
 N         -1.7065578708       -1.3851205269        0.7815764163
 C         -2.0305434046       -1.0321098300       -0.6110651008
 H         -3.1062003843       -0.9279098371       -0.7336656292
 H         -1.6604193908       -1.8315775392       -1.2540621463
 H         -1.5360149195       -0.1058345194       -0.8913382924
 C         -2.2392173840       -2.7329685339        1.0539072282
 H         -2.0097854450       -3.0288445663        2.0752083037
 H         -1.7777796905       -3.4350395303        0.3589750931
 H         -3.3183508915       -2.7466455165        0.9163268612
 C         -0.2395210197       -1.4342143871        0.9140862994
 H          0.1385092038       -2.1700914140        0.2040046512
 H          0.0346550758       -1.7260642882        1.9250634698
 H          0.2014113951       -0.4653958176        0.6875989528
 H         -2.1799151186        2.6563319465        2.5576696150
 C          2.8125395613       -0.9627201452       -1.5244165320
 O          1.7722440417       -0.9056871279       -2.1875680818
 N          3.0367869033       -0.1455351114       -0.4857767505
 H          2.3098652707        0.5172305850       -0.2096049304
 H          3.8858645828       -0.1920821605        0.0459540641
 N          3.7699645243       -1.8793257921       -1.8024851731
 H          4.6560178956       -1.8808681936       -1.3317034707
 H          3.6654400113       -2.4550565178       -2.6184466139
 C          0.2865897789        2.0511104814       -0.7786961722
 O          0.9073085852        1.5396410762        0.1732768257
 N          0.2130614047        1.4170580999       -1.9654186357
 H          0.7961486394        0.5880200392       -2.1141745297
 H         -0.1386197395        1.8947481998       -2.7759991926
 N         -0.3742484399        3.2074473694       -0.6326464061
 H         -0.9198947817        3.5885205398       -1.3844617290
 H         -0.5333599790        3.5712378581        0.3117318630
 C         -0.1174054006       -4.0445976714       -2.4058367875
 O         -0.5379908278       -3.6132937902       -1.3355487723
 N          0.8009144437       -3.3838890798       -3.1369573969
 H          1.0802995702       -2.4476150303       -2.8457191686
 H          1.0179353989       -3.6776225872       -4.0720864505
 N         -0.5670252942       -5.2178605206       -2.9218081110
 H         -0.1324066612       -5.6427191694       -3.7206814582
 H         -1.1483616198       -5.7989198180       -2.3443153428
 C          0.1654350558        3.9673059429        2.7233092305
 O         -0.8566440124        3.8942194532        2.0354597976
 N          1.2657329232        3.2523635492        2.4297240135
 H          1.2432634971        2.6297986424        1.6236435881
 H          2.1048805083        3.3246205538        2.9739596737
 N          0.2152850469        4.7548844833        3.8198059739
 H          1.0485643967        4.8677604395        4.3667633568
 H         -0.5817571972        5.3277401206        4.0326785965
