 xtb: 6.6.1 (unknown-commit)
          01102418283D

 53 48  0     0  0            999 V2000
    3.4435   -1.3802   -0.8031 O   0  0  0  0  0  0  0  0  0  0  0  0
    3.0292   -0.7185    0.3582 C   0  0  0  0  0  0  0  0  0  0  0  0
    3.6535   -1.0213    1.2129 H   0  0  0  0  0  0  0  0  0  0  0  0
    3.1965    0.3484    0.1931 H   0  0  0  0  0  0  0  0  0  0  0  0
    1.5829   -1.0218    0.7616 C   0  0  0  0  0  0  0  0  0  0  0  0
    1.3821   -0.5591    1.7300 H   0  0  0  0  0  0  0  0  0  0  0  0
    1.4865   -2.1075    0.8430 H   0  0  0  0  0  0  0  0  0  0  0  0
    0.5210   -0.5501   -0.1673 N   0  0  0  0  0  0  0  0  0  0  0  0
    0.6510   -1.1432   -1.5073 C   0  0  0  0  0  0  0  0  0  0  0  0
   -0.1833   -0.8099   -2.1234 H   0  0  0  0  0  0  0  0  0  0  0  0
    0.6551   -2.2294   -1.4342 H   0  0  0  0  0  0  0  0  0  0  0  0
    1.5853   -0.8259   -1.9650 H   0  0  0  0  0  0  0  0  0  0  0  0
    0.5344    0.9151   -0.2839 C   0  0  0  0  0  0  0  0  0  0  0  0
    1.4636    1.2518   -0.7344 H   0  0  0  0  0  0  0  0  0  0  0  0
    0.4186    1.3469    0.7097 H   0  0  0  0  0  0  0  0  0  0  0  0
   -0.2970    1.2176   -0.9161 H   0  0  0  0  0  0  0  0  0  0  0  0
   -0.7735   -0.9470    0.4113 C   0  0  0  0  0  0  0  0  0  0  0  0
   -0.8209   -2.0288    0.5142 H   0  0  0  0  0  0  0  0  0  0  0  0
   -1.5783   -0.6096   -0.2360 H   0  0  0  0  0  0  0  0  0  0  0  0
   -0.8787   -0.4781    1.3891 H   0  0  0  0  0  0  0  0  0  0  0  0
    3.0954   -2.3016   -0.7491 H   0  0  0  0  0  0  0  0  0  0  0  0
    3.1580   -4.7414   -0.8824 C   0  0  0  0  0  0  0  0  0  0  0  0
    2.3588   -3.8550   -0.5874 O   0  0  0  0  0  0  0  0  0  0  0  0
    4.4223   -4.4659   -1.2694 N   0  0  0  0  0  0  0  0  0  0  0  0
    4.7025   -3.5055   -1.3772 H   0  0  0  0  0  0  0  0  0  0  0  0
    5.0577   -5.1841   -1.5647 H   0  0  0  0  0  0  0  0  0  0  0  0
    2.8193   -6.0480   -0.8345 N   0  0  0  0  0  0  0  0  0  0  0  0
    3.4788   -6.7812   -1.0183 H   0  0  0  0  0  0  0  0  0  0  0  0
    1.9068   -6.2973   -0.4977 H   0  0  0  0  0  0  0  0  0  0  0  0
   -1.6384    3.7848   -0.3959 C   0  0  0  0  0  0  0  0  0  0  0  0
   -2.1224    2.9692    0.3933 O   0  0  0  0  0  0  0  0  0  0  0  0
   -1.2444    5.0119    0.0196 N   0  0  0  0  0  0  0  0  0  0  0  0
   -1.4462    5.2877    0.9639 H   0  0  0  0  0  0  0  0  0  0  0  0
   -0.9377    5.7174   -0.6247 H   0  0  0  0  0  0  0  0  0  0  0  0
   -1.4546    3.4973   -1.6946 N   0  0  0  0  0  0  0  0  0  0  0  0
   -1.0464    4.1592   -2.3282 H   0  0  0  0  0  0  0  0  0  0  0  0
   -1.6591    2.5567   -2.0309 H   0  0  0  0  0  0  0  0  0  0  0  0
   -0.5767    1.6365    3.5475 C   0  0  0  0  0  0  0  0  0  0  0  0
    0.0081    0.8956    2.7651 O   0  0  0  0  0  0  0  0  0  0  0  0
   -1.3796    2.6411    3.1359 N   0  0  0  0  0  0  0  0  0  0  0  0
   -1.6411    2.6972    2.1544 H   0  0  0  0  0  0  0  0  0  0  0  0
   -1.9633    3.1213    3.7972 H   0  0  0  0  0  0  0  0  0  0  0  0
   -0.4492    1.4894    4.8931 N   0  0  0  0  0  0  0  0  0  0  0  0
   -0.7967    2.1804    5.5329 H   0  0  0  0  0  0  0  0  0  0  0  0
    0.2485    0.8505    5.2313 H   0  0  0  0  0  0  0  0  0  0  0  0
   -3.1959    0.5405   -1.9597 C   0  0  0  0  0  0  0  0  0  0  0  0
   -2.0391    0.7963   -2.3021 O   0  0  0  0  0  0  0  0  0  0  0  0
   -3.6940    0.9663   -0.7840 N   0  0  0  0  0  0  0  0  0  0  0  0
   -3.1537    1.6573   -0.2566 H   0  0  0  0  0  0  0  0  0  0  0  0
   -4.6662    0.8529   -0.5612 H   0  0  0  0  0  0  0  0  0  0  0  0
   -3.9905   -0.2582   -2.7121 N   0  0  0  0  0  0  0  0  0  0  0  0
   -4.9618   -0.3937   -2.4989 H   0  0  0  0  0  0  0  0  0  0  0  0
   -3.6603   -0.5386   -3.6184 H   0  0  0  0  0  0  0  0  0  0  0  0
  1  2  1  0  0  0  0
  2  3  1  0  0  0  0
  2  4  1  0  0  0  0
  2  5  1  0  0  0  0
  5  6  1  0  0  0  0
  5  7  1  0  0  0  0
  5  8  1  0  0  0  0
  8  9  1  0  0  0  0
  9 10  1  0  0  0  0
  9 11  1  0  0  0  0
  9 12  1  0  0  0  0
  8 13  1  0  0  0  0
 13 14  1  0  0  0  0
 13 15  1  0  0  0  0
 13 16  1  0  0  0  0
  8 17  1  0  0  0  0
 17 18  1  0  0  0  0
 17 19  1  0  0  0  0
 17 20  1  0  0  0  0
  1 21  1  0  0  0  0
 22 23  2  0  0  0  0
 22 24  4  0  0  0  0
 24 25  1  0  0  0  0
 24 26  1  0  0  0  0
 22 27  4  0  0  0  0
 27 28  1  0  0  0  0
 27 29  1  0  0  0  0
 30 31  4  0  0  0  0
 30 32  4  0  0  0  0
 32 33  1  0  0  0  0
 32 34  1  0  0  0  0
 30 35  4  0  0  0  0
 35 36  1  0  0  0  0
 35 37  1  0  0  0  0
 38 39  2  0  0  0  0
 38 40  4  0  0  0  0
 40 41  1  0  0  0  0
 40 42  1  0  0  0  0
 38 43  1  0  0  0  0
 43 44  1  0  0  0  0
 43 45  1  0  0  0  0
 46 47  4  0  0  0  0
 46 48  4  0  0  0  0
 48 49  1  0  0  0  0
 48 50  1  0  0  0  0
 46 51  4  0  0  0  0
 51 52  1  0  0  0  0
 51 53  1  0  0  0  0
M  CHG  1   1   1
M  END
