  53

 O         -0.7175584032       -3.0546134015       -2.2491630793
 C          0.5870114222       -3.0086761271       -1.6887233405
 H          0.9154057655       -4.0176471895       -1.4149199699
 H          1.2953668926       -2.6146754729       -2.4275379650
 C          0.6424822320       -2.0623057115       -0.4961536510
 H          0.2562181158       -1.0857074611       -0.7894003558
 H          1.6912808800       -1.9465863739       -0.2063839153
 N         -0.0854085177       -2.4810791472        0.7315095986
 C          0.2061489181       -1.4673092372        1.7601172017
 H          1.2764456861       -1.4753469123        1.9623191337
 H         -0.3433794883       -1.6907636559        2.6715338091
 H         -0.0728254073       -0.4815116936        1.3974117637
 C          0.4060000746       -3.7800832556        1.2167742119
 H          0.1244065306       -4.5777302342        0.5342987887
 H         -0.0273507850       -3.9938542688        2.1917770302
 H          1.4906050521       -3.7318466595        1.3098695989
 C         -1.5365921601       -2.5324524322        0.5000400954
 H         -1.7698865316       -3.2711337079       -0.2620676517
 H         -1.8795938785       -1.5540825391        0.1571919450
 H         -2.0499448235       -2.7934830687        1.4230492300
 H         -0.6974467838       -3.5796553610       -3.0559896471
 C          1.1999663842        1.9806052348        0.2194374219
 O          1.6443070235        0.8461000176        0.0542247766
 N          1.9992856972        3.0759912487        0.1950745252
 H          2.9914242187        2.9608324013        0.0992605406
 H          1.6372448389        3.9921830333        0.3847163096
 N         -0.1045545019        2.2066408352        0.4837209886
 H         -0.5022466124        3.1280185844        0.3722476395
 H         -0.7497543117        1.4545623908        0.2630203909
 C         -3.3052997669        3.4693242796        0.5470610913
 O         -2.4002847703        3.7904262707       -0.2228103660
 N         -3.6208762404        2.1805214950        0.7800042500
 H         -3.0789265096        1.4495965769        0.3272524863
 H         -4.3478183010        1.9231040585        1.4209904106
 N         -4.0171474761        4.4015761915        1.2229493489
 H         -4.8191571537        4.1653222200        1.7776110605
 H         -3.8564484517        5.3687290238        1.0044526344
 C         -1.8901248205        0.6391142599       -1.8523450884
 O         -1.9328639855        0.3185907577       -0.6523844128
 N         -1.6955175005       -0.2936788026       -2.8077179047
 H         -1.5658974410       -1.2611895011       -2.5483616460
 H         -1.6837246973       -0.0478827496       -3.7801555710
 N         -2.0182987376        1.9111655511       -2.2445419580
 H         -1.9797873486        2.1669609924       -3.2138817463
 H         -2.1350618735        2.6511707927       -1.5447043638
 C          4.1451609907       -1.6077495033        1.1887652256
 O          3.1520714230       -2.3314022997        1.1995942485
 N          4.1110341286       -0.3454243275        0.7231509246
 H          3.2208448160        0.0708433778        0.4485160052
 H          4.9199901944        0.2448808066        0.7871948435
 N          5.3416485899       -2.0463091165        1.6565860443
 H          6.1831289718       -1.5085968015        1.5599487945
 H          5.4232947586       -3.0100560783        1.9260275598
