  53

 O         -0.6204469815        0.8703067285       -2.5425864773
 C          0.5668741636        0.6630763823       -1.8251074162
 H          1.3655367652        0.5845985504       -2.5669766987
 H          0.7926564963        1.5234453847       -1.1810746917
 C          0.5421841521       -0.5468952055       -0.8890550383
 H         -0.2625180934       -0.4208025261       -0.1613318961
 H          1.4975569627       -0.5726216140       -0.3643725276
 N          0.3438059166       -1.8858020436       -1.5107767549
 C         -1.0211176470       -1.9988525259       -2.0485716891
 H         -1.7280165262       -1.8545860578       -1.2323378115
 H         -1.1696699203       -2.9838521461       -2.4866268225
 H         -1.1850929586       -1.2330925515       -2.8040924592
 C          0.5202999846       -2.8915967582       -0.4474993408
 H         -0.2053186466       -2.6969604698        0.3400434817
 H          1.5275194838       -2.8185377597       -0.0417649813
 H          0.3592244101       -3.8893605619       -0.8500528710
 C          1.3353079814       -2.1276479228       -2.5665835326
 H          2.3341867558       -1.9739119788       -2.1613755467
 H          1.1708860958       -1.4517807699       -3.4023903605
 H          1.2515855987       -3.1520175296       -2.9256388913
 H         -1.3436584866        1.0475320963       -1.8961882929
 C          0.9960615840        0.6988005990        2.1912514399
 O          1.5843097543        1.4047348355        1.3782614521
 N         -0.0488250017        1.1804621381        2.9202249439
 H         -0.1821126207        2.1768145958        2.9132005131
 H         -0.3983579772        0.6671821925        3.7098759563
 N          1.3247117942       -0.5910838741        2.4067902301
 H          0.7317336844       -1.1864554665        2.9549264338
 H          2.0026011271       -1.0261513399        1.7861326673
 C         -3.1521406291        2.6593889753       -1.5624467982
 O         -2.6731332572        1.6855744455       -0.9779414648
 N         -2.6088184795        3.1441176597       -2.6940331214
 H         -1.7933009550        2.6865832678       -3.0710604785
 H         -2.9893893838        3.9376559921       -3.1755054299
 N         -4.2374246411        3.3091074305       -1.0851246433
 H         -4.6793568689        4.0507291183       -1.5967491130
 H         -4.7200292980        2.9280614056       -0.2913512845
 C         -2.3702347197       -0.7331170765        1.8749099279
 O         -1.7316095230       -1.3888550442        1.0637874621
 N         -3.0042542740        0.4092784697        1.5573695544
 H         -2.8642557328        0.8178889269        0.6369375651
 H         -3.4137338414        0.9817506880        2.2730784527
 N         -2.4457561990       -1.1113886638        3.1946486361
 H         -3.1887371554       -0.7393736208        3.7629259272
 H         -2.2083127126       -2.0720197666        3.3849361282
 C          4.1951974096       -0.7901284948        0.3834199126
 O          3.2100807073       -1.5341475817        0.4353579771
 N          5.4230222369       -1.2817763513        0.0769611351
 H          5.5402729120       -2.2794793526        0.0559952783
 H          6.2484106919       -0.7172271362        0.1661223780
 N          4.0926762777        0.5340449272        0.5543494239
 H          4.9027957362        1.1260130207        0.5543222412
 H          3.1878818273        0.9359840659        0.8219751024
