 xtb: 6.6.1 (unknown-commit)
          01102415383D

 53 48  0     0  0            999 V2000
   -0.6205    0.8703   -2.5426 O   0  0  0  0  0  0  0  0  0  0  0  0
    0.5669    0.6631   -1.8251 C   0  0  0  0  0  0  0  0  0  0  0  0
    1.3655    0.5846   -2.5670 H   0  0  0  0  0  0  0  0  0  0  0  0
    0.7927    1.5234   -1.1811 H   0  0  0  0  0  0  0  0  0  0  0  0
    0.5422   -0.5469   -0.8891 C   0  0  0  0  0  0  0  0  0  0  0  0
   -0.2625   -0.4208   -0.1613 H   0  0  0  0  0  0  0  0  0  0  0  0
    1.4976   -0.5726   -0.3644 H   0  0  0  0  0  0  0  0  0  0  0  0
    0.3438   -1.8858   -1.5108 N   0  0  0  0  0  0  0  0  0  0  0  0
   -1.0211   -1.9989   -2.0486 C   0  0  0  0  0  0  0  0  0  0  0  0
   -1.7280   -1.8546   -1.2323 H   0  0  0  0  0  0  0  0  0  0  0  0
   -1.1697   -2.9839   -2.4866 H   0  0  0  0  0  0  0  0  0  0  0  0
   -1.1851   -1.2331   -2.8041 H   0  0  0  0  0  0  0  0  0  0  0  0
    0.5203   -2.8916   -0.4475 C   0  0  0  0  0  0  0  0  0  0  0  0
   -0.2053   -2.6970    0.3400 H   0  0  0  0  0  0  0  0  0  0  0  0
    1.5275   -2.8185   -0.0418 H   0  0  0  0  0  0  0  0  0  0  0  0
    0.3592   -3.8894   -0.8500 H   0  0  0  0  0  0  0  0  0  0  0  0
    1.3353   -2.1277   -2.5666 C   0  0  0  0  0  0  0  0  0  0  0  0
    2.3342   -1.9739   -2.1614 H   0  0  0  0  0  0  0  0  0  0  0  0
    1.1709   -1.4518   -3.4024 H   0  0  0  0  0  0  0  0  0  0  0  0
    1.2516   -3.1520   -2.9256 H   0  0  0  0  0  0  0  0  0  0  0  0
   -1.3437    1.0475   -1.8962 H   0  0  0  0  0  0  0  0  0  0  0  0
    0.9961    0.6988    2.1912 C   0  0  0  0  0  0  0  0  0  0  0  0
    1.5843    1.4047    1.3783 O   0  0  0  0  0  0  0  0  0  0  0  0
   -0.0488    1.1805    2.9202 N   0  0  0  0  0  0  0  0  0  0  0  0
   -0.1821    2.1768    2.9132 H   0  0  0  0  0  0  0  0  0  0  0  0
   -0.3983    0.6672    3.7099 H   0  0  0  0  0  0  0  0  0  0  0  0
    1.3247   -0.5911    2.4068 N   0  0  0  0  0  0  0  0  0  0  0  0
    0.7317   -1.1865    2.9549 H   0  0  0  0  0  0  0  0  0  0  0  0
    2.0026   -1.0262    1.7861 H   0  0  0  0  0  0  0  0  0  0  0  0
   -3.1521    2.6594   -1.5624 C   0  0  0  0  0  0  0  0  0  0  0  0
   -2.6731    1.6856   -0.9779 O   0  0  0  0  0  0  0  0  0  0  0  0
   -2.6088    3.1441   -2.6940 N   0  0  0  0  0  0  0  0  0  0  0  0
   -1.7933    2.6866   -3.0711 H   0  0  0  0  0  0  0  0  0  0  0  0
   -2.9894    3.9377   -3.1755 H   0  0  0  0  0  0  0  0  0  0  0  0
   -4.2374    3.3091   -1.0851 N   0  0  0  0  0  0  0  0  0  0  0  0
   -4.6793    4.0508   -1.5967 H   0  0  0  0  0  0  0  0  0  0  0  0
   -4.7200    2.9281   -0.2913 H   0  0  0  0  0  0  0  0  0  0  0  0
   -2.3702   -0.7331    1.8749 C   0  0  0  0  0  0  0  0  0  0  0  0
   -1.7316   -1.3888    1.0638 O   0  0  0  0  0  0  0  0  0  0  0  0
   -3.0042    0.4093    1.5574 N   0  0  0  0  0  0  0  0  0  0  0  0
   -2.8642    0.8179    0.6369 H   0  0  0  0  0  0  0  0  0  0  0  0
   -3.4137    0.9818    2.2731 H   0  0  0  0  0  0  0  0  0  0  0  0
   -2.4458   -1.1114    3.1947 N   0  0  0  0  0  0  0  0  0  0  0  0
   -3.1887   -0.7394    3.7629 H   0  0  0  0  0  0  0  0  0  0  0  0
   -2.2083   -2.0720    3.3849 H   0  0  0  0  0  0  0  0  0  0  0  0
    4.1952   -0.7901    0.3834 C   0  0  0  0  0  0  0  0  0  0  0  0
    3.2101   -1.5342    0.4353 O   0  0  0  0  0  0  0  0  0  0  0  0
    5.4230   -1.2818    0.0769 N   0  0  0  0  0  0  0  0  0  0  0  0
    5.5403   -2.2795    0.0560 H   0  0  0  0  0  0  0  0  0  0  0  0
    6.2484   -0.7173    0.1661 H   0  0  0  0  0  0  0  0  0  0  0  0
    4.0927    0.5340    0.5543 N   0  0  0  0  0  0  0  0  0  0  0  0
    4.9028    1.1260    0.5543 H   0  0  0  0  0  0  0  0  0  0  0  0
    3.1879    0.9360    0.8220 H   0  0  0  0  0  0  0  0  0  0  0  0
  1  2  1  0  0  0  0
  2  3  1  0  0  0  0
  2  4  1  0  0  0  0
  2  5  1  0  0  0  0
  5  6  1  0  0  0  0
  5  7  1  0  0  0  0
  5  8  1  0  0  0  0
  8  9  1  0  0  0  0
  9 10  1  0  0  0  0
  9 11  1  0  0  0  0
  9 12  1  0  0  0  0
  8 13  1  0  0  0  0
 13 14  1  0  0  0  0
 13 15  1  0  0  0  0
 13 16  1  0  0  0  0
  8 17  1  0  0  0  0
 17 18  1  0  0  0  0
 17 19  1  0  0  0  0
 17 20  1  0  0  0  0
  1 21  1  0  0  0  0
 22 23  2  0  0  0  0
 22 24  1  0  0  0  0
 24 25  1  0  0  0  0
 24 26  1  0  0  0  0
 22 27  4  0  0  0  0
 27 28  1  0  0  0  0
 27 29  1  0  0  0  0
 30 31  4  0  0  0  0
 30 32  4  0  0  0  0
 32 33  1  0  0  0  0
 32 34  1  0  0  0  0
 30 35  4  0  0  0  0
 35 36  1  0  0  0  0
 35 37  1  0  0  0  0
 38 39  2  0  0  0  0
 38 40  4  0  0  0  0
 40 41  1  0  0  0  0
 40 42  1  0  0  0  0
 38 43  1  0  0  0  0
 43 44  1  0  0  0  0
 43 45  1  0  0  0  0
 46 47  4  0  0  0  0
 46 48  1  0  0  0  0
 48 49  1  0  0  0  0
 48 50  1  0  0  0  0
 46 51  4  0  0  0  0
 51 52  1  0  0  0  0
 51 53  1  0  0  0  0
M  CHG  1   1   1
M  END
