  53

 O         -0.4829441059        1.7829014866       -1.9652665515
 C         -0.8600631913        0.7690033165       -2.8465142965
 H         -1.3763858154        1.1971723613       -3.7206189856
 H          0.0616289857        0.2985891919       -3.1998913669
 C         -1.8281747542       -0.2563344125       -2.2450639121
 H         -2.2141475100       -0.8779328661       -3.0557903134
 H         -2.6538967387        0.3034524423       -1.7970122898
 N         -1.2821790148       -1.1596872074       -1.1978554515
 C         -0.1285659994       -1.9366506129       -1.6795347724
 H         -0.3574709564       -2.4068581175       -2.6333563007
 H          0.0955687867       -2.7010506632       -0.9362599508
 H          0.7496572583       -1.3013362202       -1.7751545649
 C         -2.3490230761       -2.0988548197       -0.8084174835
 H         -3.2146248920       -1.5494875338       -0.4441603806
 H         -1.9697345710       -2.7452690891       -0.0170803382
 H         -2.6460080580       -2.7084314487       -1.6597449745
 C         -0.8716471460       -0.4073489759       -0.0012839526
 H         -0.5425394893       -1.1163247664        0.7554288720
 H         -1.7090114729        0.1781982231        0.3708372009
 H         -0.0573836044        0.2707800988       -0.2437255365
 H         -1.2742985654        2.0516014448       -1.4431197081
 C          2.7690307179       -0.8128194557        0.6227617097
 O          2.5327684680       -0.6706073513       -0.5713228620
 N          2.3226773692        0.0317879007        1.5581520255
 H          1.7952805572        0.8627854349        1.2675352589
 H          2.5323772177       -0.0959130669        2.5309897125
 N          3.4586857955       -1.9231901473        1.0803079095
 H          3.9584841703       -1.8313336294        1.9514904500
 H          3.9715942272       -2.4087738713        0.3584882889
 C          1.4652467718        2.7391089265       -0.4620020729
 O          0.9713572403        2.2538358535        0.5663864512
 N          2.3758852086        2.0790589829       -1.1913593329
 H          2.4906675387        1.0782634373       -1.0334592275
 H          2.6728722755        2.4485363365       -2.0761170966
 N          1.1832577594        4.0093831888       -0.8352461888
 H          1.4248050916        4.3316777471       -1.7549000333
 H          0.4253816776        4.4775025015       -0.3694618072
 C          0.2746499178       -4.1566817257        1.8369327687
 O         -0.3023561704       -3.3536896285        1.1145216460
 N         -0.3639639804       -5.2239168487        2.3774631395
 H         -1.3599962397       -5.2918279786        2.2685295040
 H          0.0751710047       -5.8179490153        3.0567146626
 N          1.5864167559       -4.0355024156        2.1426010836
 H          2.0727418446       -4.7639858324        2.6328094986
 H          2.1329721088       -3.3226102387        1.6744401188
 C         -2.6607555455        2.9958435896        0.5308353965
 O         -2.6676936691        2.1952995254       -0.4052318457
 N         -1.5261944016        3.3876496171        1.1408622008
 H         -0.6461903777        2.8981712567        0.9512379923
 H         -1.5732963794        3.9330486071        1.9832552490
 N         -3.8165789185        3.5279857405        1.0006621646
 H         -3.8201762590        4.2741527219        1.6722541346
 H         -4.6585315575        3.3647172907        0.4770280003
