  53

 O          0.6367110591        2.2937915732        2.2534956072
 C          0.8041013059        2.0337772939        0.8903312242
 H          0.8649552793        3.0022069301        0.3895453308
 H          1.7500219471        1.5051498181        0.7107140145
 C         -0.2925653510        1.1427063473        0.2929733107
 H         -0.3727178735        0.2593870725        0.9264105070
 H          0.0050275360        0.8497471302       -0.7144006635
 N         -1.6542315342        1.7362056418        0.1936486225
 C         -2.1916454528        2.0099479403        1.5359388115
 H         -2.3000436140        1.0726999846        2.0794643315
 H         -3.1637177202        2.4930561728        1.4583742483
 H         -1.5033503220        2.6520081175        2.0843556169
 C         -2.5194497503        0.7539264957       -0.4845714845
 H         -2.4772415304       -0.2061631966        0.0337890213
 H         -2.1724019721        0.6160289727       -1.5062913961
 H         -3.5476200967        1.1094564050       -0.4983575583
 C         -1.6243806048        2.9683429123       -0.6097984668
 H         -1.1086222706        2.7644358215       -1.5484029104
 H         -1.1079477617        3.7595081214       -0.0724791017
 H         -2.6404776169        3.2977518879       -0.8190031326
 H          0.6762206762        1.4333211570        2.7186661004
 C          2.9470959907       -0.3965246737       -1.5384597271
 O          2.1602362983       -1.3451378014       -1.5746905222
 N          4.2016597634       -0.5458691215       -1.0536775191
 H          4.5201005124       -1.4712132910       -0.8264664621
 H          4.8828049073        0.1896397260       -1.1004813135
 N          2.5925304049        0.8425375955       -1.9253494634
 H          3.2563363457        1.5943339730       -1.9485694183
 H          1.6563400928        1.0055819162       -2.2906947585
 C         -0.3498205466        0.1957668480       -3.6461134171
 O         -0.1105492329        1.0950225469       -2.8330571472
 N          0.2112370736       -1.0159613929       -3.5497613720
 H          0.8861152130       -1.1988852083       -2.8014576535
 H          0.0306722105       -1.7316216869       -4.2292200229
 N         -1.2568199983        0.3796089244       -4.6411501510
 H         -1.3365021592       -0.2803757744       -5.3942430759
 H         -1.5708123501        1.3176063557       -4.8213725014
 C         -0.5918771236       -2.2632085615        0.2508428438
 O         -1.6231798812       -1.9229162018        0.8406741660
 N         -0.6436708996       -2.8141904303       -0.9863616467
 H         -1.5290794758       -3.1543283925       -1.3172051997
 H          0.1967322682       -3.1736269523       -1.4025849503
 N          0.6381479413       -2.0886597391        0.7662227577
 H          1.4263727810       -2.1234502925        0.1367465565
 H          0.7284038973       -1.5280603702        1.6091476583
 C         -0.3639786321       -0.7312706012        3.9009290769
 O          0.4205971189       -0.3079008598        3.0444772081
 N         -0.1425287365       -0.5163232089        5.2163420054
 H          0.7008870999       -0.0472831711        5.4944564119
 H         -0.7457364602       -0.8819298750        5.9297522203
 N         -1.5024670357       -1.3583038431        3.5593021634
 H         -2.0600006961       -1.8259567101        4.2512140920
 H         -1.6183743229       -1.6362069759        2.5781032838
