 xtb: 6.6.1 (unknown-commit)
          01102415333D

 53 48  0     0  0            999 V2000
    0.6367    2.2938    2.2535 O   0  0  0  0  0  0  0  0  0  0  0  0
    0.8041    2.0338    0.8903 C   0  0  0  0  0  0  0  0  0  0  0  0
    0.8650    3.0022    0.3895 H   0  0  0  0  0  0  0  0  0  0  0  0
    1.7500    1.5051    0.7107 H   0  0  0  0  0  0  0  0  0  0  0  0
   -0.2926    1.1427    0.2930 C   0  0  0  0  0  0  0  0  0  0  0  0
   -0.3727    0.2594    0.9264 H   0  0  0  0  0  0  0  0  0  0  0  0
    0.0050    0.8497   -0.7144 H   0  0  0  0  0  0  0  0  0  0  0  0
   -1.6542    1.7362    0.1937 N   0  0  0  0  0  0  0  0  0  0  0  0
   -2.1916    2.0100    1.5359 C   0  0  0  0  0  0  0  0  0  0  0  0
   -2.3000    1.0727    2.0795 H   0  0  0  0  0  0  0  0  0  0  0  0
   -3.1637    2.4931    1.4584 H   0  0  0  0  0  0  0  0  0  0  0  0
   -1.5033    2.6520    2.0844 H   0  0  0  0  0  0  0  0  0  0  0  0
   -2.5194    0.7539   -0.4846 C   0  0  0  0  0  0  0  0  0  0  0  0
   -2.4772   -0.2062    0.0338 H   0  0  0  0  0  0  0  0  0  0  0  0
   -2.1724    0.6160   -1.5063 H   0  0  0  0  0  0  0  0  0  0  0  0
   -3.5476    1.1095   -0.4983 H   0  0  0  0  0  0  0  0  0  0  0  0
   -1.6244    2.9684   -0.6098 C   0  0  0  0  0  0  0  0  0  0  0  0
   -1.1086    2.7644   -1.5484 H   0  0  0  0  0  0  0  0  0  0  0  0
   -1.1079    3.7595   -0.0725 H   0  0  0  0  0  0  0  0  0  0  0  0
   -2.6405    3.2978   -0.8190 H   0  0  0  0  0  0  0  0  0  0  0  0
    0.6762    1.4333    2.7187 H   0  0  0  0  0  0  0  0  0  0  0  0
    2.9471   -0.3965   -1.5385 C   0  0  0  0  0  0  0  0  0  0  0  0
    2.1602   -1.3452   -1.5747 O   0  0  0  0  0  0  0  0  0  0  0  0
    4.2017   -0.5459   -1.0537 N   0  0  0  0  0  0  0  0  0  0  0  0
    4.5201   -1.4712   -0.8265 H   0  0  0  0  0  0  0  0  0  0  0  0
    4.8828    0.1896   -1.1005 H   0  0  0  0  0  0  0  0  0  0  0  0
    2.5925    0.8425   -1.9254 N   0  0  0  0  0  0  0  0  0  0  0  0
    3.2563    1.5943   -1.9486 H   0  0  0  0  0  0  0  0  0  0  0  0
    1.6563    1.0056   -2.2907 H   0  0  0  0  0  0  0  0  0  0  0  0
   -0.3498    0.1958   -3.6461 C   0  0  0  0  0  0  0  0  0  0  0  0
   -0.1106    1.0950   -2.8331 O   0  0  0  0  0  0  0  0  0  0  0  0
    0.2112   -1.0160   -3.5498 N   0  0  0  0  0  0  0  0  0  0  0  0
    0.8861   -1.1989   -2.8015 H   0  0  0  0  0  0  0  0  0  0  0  0
    0.0306   -1.7316   -4.2292 H   0  0  0  0  0  0  0  0  0  0  0  0
   -1.2568    0.3796   -4.6411 N   0  0  0  0  0  0  0  0  0  0  0  0
   -1.3365   -0.2804   -5.3942 H   0  0  0  0  0  0  0  0  0  0  0  0
   -1.5708    1.3176   -4.8214 H   0  0  0  0  0  0  0  0  0  0  0  0
   -0.5919   -2.2632    0.2508 C   0  0  0  0  0  0  0  0  0  0  0  0
   -1.6232   -1.9229    0.8407 O   0  0  0  0  0  0  0  0  0  0  0  0
   -0.6437   -2.8142   -0.9864 N   0  0  0  0  0  0  0  0  0  0  0  0
   -1.5291   -3.1543   -1.3172 H   0  0  0  0  0  0  0  0  0  0  0  0
    0.1967   -3.1736   -1.4026 H   0  0  0  0  0  0  0  0  0  0  0  0
    0.6381   -2.0887    0.7662 N   0  0  0  0  0  0  0  0  0  0  0  0
    1.4264   -2.1235    0.1367 H   0  0  0  0  0  0  0  0  0  0  0  0
    0.7284   -1.5281    1.6091 H   0  0  0  0  0  0  0  0  0  0  0  0
   -0.3640   -0.7313    3.9009 C   0  0  0  0  0  0  0  0  0  0  0  0
    0.4206   -0.3079    3.0445 O   0  0  0  0  0  0  0  0  0  0  0  0
   -0.1425   -0.5163    5.2163 N   0  0  0  0  0  0  0  0  0  0  0  0
    0.7009   -0.0473    5.4945 H   0  0  0  0  0  0  0  0  0  0  0  0
   -0.7457   -0.8819    5.9298 H   0  0  0  0  0  0  0  0  0  0  0  0
   -1.5025   -1.3583    3.5593 N   0  0  0  0  0  0  0  0  0  0  0  0
   -2.0600   -1.8259    4.2512 H   0  0  0  0  0  0  0  0  0  0  0  0
   -1.6184   -1.6362    2.5781 H   0  0  0  0  0  0  0  0  0  0  0  0
  1  2  1  0  0  0  0
  2  3  1  0  0  0  0
  2  4  1  0  0  0  0
  2  5  1  0  0  0  0
  5  6  1  0  0  0  0
  5  7  1  0  0  0  0
  5  8  1  0  0  0  0
  8  9  1  0  0  0  0
  9 10  1  0  0  0  0
  9 11  1  0  0  0  0
  9 12  1  0  0  0  0
  8 13  1  0  0  0  0
 13 14  1  0  0  0  0
 13 15  1  0  0  0  0
 13 16  1  0  0  0  0
  8 17  1  0  0  0  0
 17 18  1  0  0  0  0
 17 19  1  0  0  0  0
 17 20  1  0  0  0  0
  1 21  1  0  0  0  0
 22 23  4  0  0  0  0
 22 24  4  0  0  0  0
 24 25  1  0  0  0  0
 24 26  1  0  0  0  0
 22 27  4  0  0  0  0
 27 28  1  0  0  0  0
 27 29  1  0  0  0  0
 30 31  4  0  0  0  0
 30 32  4  0  0  0  0
 32 33  1  0  0  0  0
 32 34  1  0  0  0  0
 30 35  1  0  0  0  0
 35 36  1  0  0  0  0
 35 37  1  0  0  0  0
 38 39  4  0  0  0  0
 38 40  4  0  0  0  0
 40 41  1  0  0  0  0
 40 42  1  0  0  0  0
 38 43  4  0  0  0  0
 43 44  1  0  0  0  0
 43 45  1  0  0  0  0
 46 47  4  0  0  0  0
 46 48  4  0  0  0  0
 48 49  1  0  0  0  0
 48 50  1  0  0  0  0
 46 51  4  0  0  0  0
 51 52  1  0  0  0  0
 51 53  1  0  0  0  0
M  CHG  1   1   1
M  END
