  53

 O          2.1853596553       -1.7346560887       -1.1712423770
 C          2.2138408255       -1.9314541381        0.2116290140
 H          2.9146157501       -2.7518221456        0.3946694501
 H          2.5825323273       -1.0429600400        0.7407525659
 C          0.8438502727       -2.2265130305        0.8432493149
 H          0.2428367821       -1.3164555916        0.8265422470
 H          1.0172300733       -2.4975540406        1.8852185315
 N          0.0384232603       -3.3025837276        0.1998906227
 C         -0.5677648826       -2.7957405168       -1.0444715130
 H         -1.2143561550       -1.9528302231       -0.8096509296
 H         -1.1566296878       -3.5803152653       -1.5156407690
 H          0.2164383092       -2.4685936068       -1.7243611815
 C         -1.0451455967       -3.6760219634        1.1261530206
 H         -1.6194974381       -2.7829622402        1.3759324437
 H         -0.6335231823       -4.1046469625        2.0373188578
 H         -1.7007549020       -4.4071998284        0.6571988012
 C          0.8676882106       -4.4783528589       -0.1043341146
 H          1.6063728963       -4.2209281363       -0.8607978015
 H          0.2423073075       -5.2847598785       -0.4835101665
 H          1.3762599982       -4.8206554374        0.7951463069
 H          1.7441281613       -0.8662635408       -1.3648813689
 C          0.9029655424        0.3834565351        3.1972114908
 O          1.2363265257        0.6407480041        2.0433818742
 N         -0.1943716476       -0.3550134937        3.4843936881
 H         -0.8686130270       -0.5080486775        2.7316869696
 H         -0.5447272846       -0.3863663592        4.4254750472
 N          1.6630572693        0.7620215991        4.2538204320
 H          1.3841005165        0.6019888000        5.2040393793
 H          2.4856552731        1.3108678225        4.0816062719
 C          1.7718018211        1.5680902244       -1.1696700196
 O          1.0451780636        0.6449528585       -1.5700075321
 N          3.0815090185        1.3574274899       -0.9186321438
 H          3.4737011937        0.4460290185       -1.0775568114
 H          3.6767245050        2.0827077807       -0.5649029787
 N          1.3097388000        2.8120954594       -1.0022670125
 H          1.8911794643        3.5369162133       -0.6245250597
 H          0.3206128291        3.0091131374       -1.1516654483
 C         -1.7566396949        2.6340668444       -2.6159891394
 O         -1.4501108030        3.1492202161       -1.5375218226
 N         -1.1973518638        1.4886869975       -3.0396853104
 H         -0.4153122676        1.1003747905       -2.5080650920
 H         -1.3903124945        1.1212421990       -3.9531769448
 N         -2.7343168497        3.1681704238       -3.3890525822
 H         -2.8977851498        2.8510964940       -4.3274184220
 H         -3.0950051353        4.0695797415       -3.1285993199
 C         -2.0539982508        0.3375515387        0.6282133172
 O         -1.8957704795       -0.7273184594        1.2454816611
 N         -3.1651986073        0.5408903363       -0.1314082679
 H         -3.9580272233       -0.0563307694        0.0293293771
 H         -3.3481436867        1.4646510418       -0.4831303845
 N         -1.1510948106        1.3182052233        0.6349974388
 H         -1.2595646062        2.1046067588        0.0056024650
 H         -0.2360089404        1.1475992160        1.0470880972
