 xtb: 6.6.1 (unknown-commit)
          01102418253D

 53 48  0     0  0            999 V2000
    2.1853   -1.7347   -1.1712 O   0  0  0  0  0  0  0  0  0  0  0  0
    2.2138   -1.9315    0.2116 C   0  0  0  0  0  0  0  0  0  0  0  0
    2.9146   -2.7518    0.3947 H   0  0  0  0  0  0  0  0  0  0  0  0
    2.5825   -1.0430    0.7407 H   0  0  0  0  0  0  0  0  0  0  0  0
    0.8438   -2.2265    0.8433 C   0  0  0  0  0  0  0  0  0  0  0  0
    0.2428   -1.3165    0.8265 H   0  0  0  0  0  0  0  0  0  0  0  0
    1.0172   -2.4976    1.8852 H   0  0  0  0  0  0  0  0  0  0  0  0
    0.0384   -3.3026    0.1999 N   0  0  0  0  0  0  0  0  0  0  0  0
   -0.5678   -2.7957   -1.0445 C   0  0  0  0  0  0  0  0  0  0  0  0
   -1.2144   -1.9528   -0.8096 H   0  0  0  0  0  0  0  0  0  0  0  0
   -1.1567   -3.5803   -1.5156 H   0  0  0  0  0  0  0  0  0  0  0  0
    0.2164   -2.4686   -1.7244 H   0  0  0  0  0  0  0  0  0  0  0  0
   -1.0452   -3.6760    1.1262 C   0  0  0  0  0  0  0  0  0  0  0  0
   -1.6195   -2.7830    1.3759 H   0  0  0  0  0  0  0  0  0  0  0  0
   -0.6335   -4.1046    2.0373 H   0  0  0  0  0  0  0  0  0  0  0  0
   -1.7008   -4.4072    0.6572 H   0  0  0  0  0  0  0  0  0  0  0  0
    0.8677   -4.4784   -0.1043 C   0  0  0  0  0  0  0  0  0  0  0  0
    1.6063   -4.2209   -0.8608 H   0  0  0  0  0  0  0  0  0  0  0  0
    0.2423   -5.2848   -0.4835 H   0  0  0  0  0  0  0  0  0  0  0  0
    1.3762   -4.8207    0.7951 H   0  0  0  0  0  0  0  0  0  0  0  0
    1.7441   -0.8663   -1.3649 H   0  0  0  0  0  0  0  0  0  0  0  0
    0.9030    0.3835    3.1972 C   0  0  0  0  0  0  0  0  0  0  0  0
    1.2363    0.6407    2.0434 O   0  0  0  0  0  0  0  0  0  0  0  0
   -0.1944   -0.3550    3.4844 N   0  0  0  0  0  0  0  0  0  0  0  0
   -0.8686   -0.5080    2.7317 H   0  0  0  0  0  0  0  0  0  0  0  0
   -0.5447   -0.3864    4.4255 H   0  0  0  0  0  0  0  0  0  0  0  0
    1.6631    0.7620    4.2538 N   0  0  0  0  0  0  0  0  0  0  0  0
    1.3841    0.6020    5.2040 H   0  0  0  0  0  0  0  0  0  0  0  0
    2.4857    1.3109    4.0816 H   0  0  0  0  0  0  0  0  0  0  0  0
    1.7718    1.5681   -1.1697 C   0  0  0  0  0  0  0  0  0  0  0  0
    1.0452    0.6449   -1.5700 O   0  0  0  0  0  0  0  0  0  0  0  0
    3.0815    1.3574   -0.9186 N   0  0  0  0  0  0  0  0  0  0  0  0
    3.4737    0.4460   -1.0776 H   0  0  0  0  0  0  0  0  0  0  0  0
    3.6767    2.0827   -0.5649 H   0  0  0  0  0  0  0  0  0  0  0  0
    1.3098    2.8121   -1.0023 N   0  0  0  0  0  0  0  0  0  0  0  0
    1.8912    3.5369   -0.6245 H   0  0  0  0  0  0  0  0  0  0  0  0
    0.3206    3.0091   -1.1517 H   0  0  0  0  0  0  0  0  0  0  0  0
   -1.7566    2.6341   -2.6160 C   0  0  0  0  0  0  0  0  0  0  0  0
   -1.4501    3.1492   -1.5375 O   0  0  0  0  0  0  0  0  0  0  0  0
   -1.1974    1.4887   -3.0397 N   0  0  0  0  0  0  0  0  0  0  0  0
   -0.4153    1.1004   -2.5081 H   0  0  0  0  0  0  0  0  0  0  0  0
   -1.3903    1.1212   -3.9532 H   0  0  0  0  0  0  0  0  0  0  0  0
   -2.7343    3.1682   -3.3890 N   0  0  0  0  0  0  0  0  0  0  0  0
   -2.8978    2.8511   -4.3274 H   0  0  0  0  0  0  0  0  0  0  0  0
   -3.0950    4.0696   -3.1286 H   0  0  0  0  0  0  0  0  0  0  0  0
   -2.0540    0.3376    0.6282 C   0  0  0  0  0  0  0  0  0  0  0  0
   -1.8958   -0.7273    1.2455 O   0  0  0  0  0  0  0  0  0  0  0  0
   -3.1652    0.5409   -0.1314 N   0  0  0  0  0  0  0  0  0  0  0  0
   -3.9580   -0.0563    0.0293 H   0  0  0  0  0  0  0  0  0  0  0  0
   -3.3481    1.4647   -0.4831 H   0  0  0  0  0  0  0  0  0  0  0  0
   -1.1511    1.3182    0.6350 N   0  0  0  0  0  0  0  0  0  0  0  0
   -1.2596    2.1046    0.0056 H   0  0  0  0  0  0  0  0  0  0  0  0
   -0.2360    1.1476    1.0471 H   0  0  0  0  0  0  0  0  0  0  0  0
  1  2  1  0  0  0  0
  2  3  1  0  0  0  0
  2  4  1  0  0  0  0
  2  5  1  0  0  0  0
  5  6  1  0  0  0  0
  5  7  1  0  0  0  0
  5  8  1  0  0  0  0
  8  9  1  0  0  0  0
  9 10  1  0  0  0  0
  9 11  1  0  0  0  0
  9 12  1  0  0  0  0
  8 13  1  0  0  0  0
 13 14  1  0  0  0  0
 13 15  1  0  0  0  0
 13 16  1  0  0  0  0
  8 17  1  0  0  0  0
 17 18  1  0  0  0  0
 17 19  1  0  0  0  0
 17 20  1  0  0  0  0
  1 21  1  0  0  0  0
 22 23  2  0  0  0  0
 22 24  4  0  0  0  0
 24 25  1  0  0  0  0
 24 26  1  0  0  0  0
 22 27  4  0  0  0  0
 27 28  1  0  0  0  0
 27 29  1  0  0  0  0
 30 31  4  0  0  0  0
 30 32  4  0  0  0  0
 32 33  1  0  0  0  0
 32 34  1  0  0  0  0
 30 35  4  0  0  0  0
 35 36  1  0  0  0  0
 35 37  1  0  0  0  0
 38 39  4  0  0  0  0
 38 40  4  0  0  0  0
 40 41  1  0  0  0  0
 40 42  1  0  0  0  0
 38 43  4  0  0  0  0
 43 44  1  0  0  0  0
 43 45  1  0  0  0  0
 46 47  4  0  0  0  0
 46 48  1  0  0  0  0
 48 49  1  0  0  0  0
 48 50  1  0  0  0  0
 46 51  4  0  0  0  0
 51 52  1  0  0  0  0
 51 53  1  0  0  0  0
M  CHG  1   1   1
M  END
