53
 xtb: 6.6.1 (unknown-commit)
O           -0.09113484618282        1.67632980782868        2.48759739130436
C           -0.52394479799845        2.61315575539832        1.55136837851080
H           -1.24230620234144        3.25242826250384        2.07052269509669
H            0.31195319958053        3.24577868894739        1.22628949497464
C           -1.13459232224517        2.00990378524398        0.27465072537120
H           -0.37643774341509        1.43221472355097       -0.25865347817623
H           -1.45021927139542        2.84260087309190       -0.35142113811895
N           -2.29814070006379        1.10449898365289        0.47285149122317
C           -1.85303357800560       -0.19797248928063        0.99947122565524
H           -1.16720074077658       -0.64756849297324        0.28677722388323
H           -2.72817518424311       -0.83470058374132        1.12613635620677
H           -1.35301032024077       -0.05887177443500        1.95506106726542
C           -2.93076790199136        0.86831945223193       -0.83632419189471
H           -2.19066275482157        0.45678089695521       -1.51508435414213
H           -3.31584859963676        1.80614675637607       -1.23886308126376
H           -3.75279603038407        0.17175032592523       -0.70068792014719
C           -3.29593880607471        1.67128034574361        1.39208668201825
H           -3.60077613520471        2.66119634312406        1.05880044851700
H           -2.88098177242406        1.73966399676911        2.39904789593293
H           -4.15851363345912        1.00773918653640        1.41136012672728
H            0.67639137687768        1.18176542213456        2.09620199936799
C            4.82762552800262       -0.30800786394782       -2.41994627123156
O            4.44991443552833       -0.88177594944184       -1.40173620077595
N            6.09840451755123        0.15008886394838       -2.54533130436093
H            6.76595524979153       -0.12668467298862       -1.85581702746272
H            6.44959901535659        0.48597884262624       -3.42908426961380
N            4.00843485630665       -0.08049789285578       -3.46821029275602
H            4.30708307717020        0.46496361737053       -4.26235644079989
H            3.02357228268381       -0.31037423072222       -3.39671307468544
C            3.11142135987808        0.52859446518684        1.89979268011767
O            2.01392498954792        0.50556876830690        1.33280603625237
N            3.23006591403370        1.04431810667702        3.14532543800602
H            2.40389392714682        1.34779484497116        3.62153671620872
H            4.10016483232659        1.02543667956223        3.64872336965590
N            4.23092864939172        0.07210537568256        1.32140403862905
H            5.10968264253855        0.08259979112250        1.80453890405794
H            4.21662463802665       -0.30541002496418        0.37428027691458
C            0.86020630664388       -0.89582171132847       -1.88436432999934
O           -0.17298888335791       -0.25498362449754       -1.74550154025410
N            1.26052019259180       -1.35634597826944       -3.13054626165703
H            0.53187576274312       -1.33359391222051       -3.83614666554146
H            1.82531960571327       -2.18323525639059       -3.14587033351593
N            1.69139108327614       -1.20358440305376       -0.87585825291624
H            2.64518994734849       -1.46661740719707       -1.10182094364483
H            1.60808274234218       -0.66256607157331       -0.02121053118331
C           -5.91960982343823       -1.67961337358575        0.84179788086428
O           -4.98597402973483       -0.89265649238495        0.77911815301371
N           -6.07161083244611       -2.69195523358386       -0.06170338472832
H           -5.23489325838211       -2.95438718834192       -0.59277626550740
H           -6.71234568614387       -3.45673403864431        0.13533518227476
N           -6.87077746530062       -1.59722512629127        1.81541069524976
H           -7.73561632607513       -2.13639459154656        1.72267266540424
H           -6.95750451103491       -0.71487299858009        2.30579387319965
