  53

 O          0.4669539006       -0.7422914766       -1.4688809636
 C          0.7973513150       -1.9846022415       -0.9271873018
 H          0.6567177445       -2.7231853895       -1.7218899693
 H          1.8563932342       -2.0127224563       -0.6331453785
 C         -0.0026882892       -2.3620227812        0.3296004870
 H          0.1711914808       -1.6164418243        1.1122250220
 H          0.3631848370       -3.3306181828        0.6759422808
 N         -1.4774784851       -2.4577966375        0.1612195106
 C         -2.0450513364       -3.0366070583        1.3912642073
 H         -1.7650148477       -2.4085106379        2.2352957191
 H         -1.6678527813       -4.0457224259        1.5433701378
 H         -3.1287313207       -3.0658695386        1.2903032078
 C         -1.8556321576       -3.2998673798       -0.9825345126
 H         -2.9390894025       -3.4151477870       -0.9785467325
 H         -1.3849313741       -4.2780551105       -0.9031604788
 H         -1.5541703346       -2.8249706526       -1.9127170148
 C         -2.0644161845       -1.1176701346       -0.0146237653
 H         -1.6458844176       -0.6460614100       -0.9004146581
 H         -1.8282765343       -0.5180341380        0.8625857646
 H         -3.1427644420       -1.2222096847       -0.1144031057
 H          0.7391993330       -0.0485935125       -0.8128337708
 C          5.5066385775        4.3045511267       -2.4321946939
 O          4.6813624461        3.5993687287       -1.8679946766
 N          5.8129965412        5.5498764707       -1.9934035363
 H          5.2516997005        5.9475571814       -1.2612827199
 H          6.3930228401        6.1701228488       -2.5285085448
 N          6.1737319495        3.8907436102       -3.5368868285
 H          6.9381672343        4.4160892279       -3.9204498909
 H          6.0751079395        2.9316017479       -3.8190144650
 C          2.3085302017        1.7426134208       -0.3300255076
 O          1.4616707369        1.0410995904        0.2449219775
 N          2.5379791417        1.6515543006       -1.6493485200
 H          1.9813778311        1.0317031582       -2.2119832400
 H          3.2337332066        2.2502215525       -2.0684045957
 N          3.0523503641        2.6556725073        0.3212933177
 H          3.7680675015        3.1496393131       -0.1925337609
 H          3.0288993980        2.6975181142        1.3233314655
 C         -6.0347679524       -2.8735769651       -0.2219966833
 O         -4.8188478132       -2.8099460930       -0.1122843373
 N         -6.8078166550       -3.5378298475        0.6708395094
 H         -6.3757424136       -3.9077851871        1.4982930849
 H         -7.8100073126       -3.5035252703        0.6366405000
 N         -6.6991633272       -2.2845198582       -1.2459169513
 H         -7.6815698253       -2.4248641222       -1.3939180657
 H         -6.1652410667       -1.8638281048       -1.9850049275
 C         -0.3108463568        0.3597745204        3.4155526538
 O         -0.7178933836       -0.6070205533        2.7820364008
 N         -0.7950490737        0.6483511535        4.6562238914
 H         -1.3732726742       -0.0417429526        5.1022842603
 H         -0.3435079269        1.3226796229        5.2474156555
 N          0.6263632277        1.2009734742        2.9357677910
 H          0.8216499845        2.0616010066        3.4147418682
 H          0.9089063070        1.1178652875        1.9584255727
