 xtb: 6.6.1 (unknown-commit)
          01102418323D

 53 48  0     0  0            999 V2000
   -0.8009   -1.2904   -2.7026 O   0  0  0  0  0  0  0  0  0  0  0  0
   -0.4228   -2.5023   -2.1243 C   0  0  0  0  0  0  0  0  0  0  0  0
   -1.1316   -3.2543   -2.4825 H   0  0  0  0  0  0  0  0  0  0  0  0
    0.5786   -2.8037   -2.4629 H   0  0  0  0  0  0  0  0  0  0  0  0
   -0.3668   -2.4913   -0.5866 C   0  0  0  0  0  0  0  0  0  0  0  0
    0.4044   -1.7944   -0.2481 H   0  0  0  0  0  0  0  0  0  0  0  0
   -0.0945   -3.4983   -0.2641 H   0  0  0  0  0  0  0  0  0  0  0  0
   -1.6224   -2.1026    0.1097 N   0  0  0  0  0  0  0  0  0  0  0  0
   -1.8397   -0.6487    0.0053 C   0  0  0  0  0  0  0  0  0  0  0  0
   -2.7559   -0.3968    0.5354 H   0  0  0  0  0  0  0  0  0  0  0  0
   -1.9221   -0.3641   -1.0408 H   0  0  0  0  0  0  0  0  0  0  0  0
   -0.9950   -0.1343    0.4604 H   0  0  0  0  0  0  0  0  0  0  0  0
   -1.4828   -2.4308    1.5391 C   0  0  0  0  0  0  0  0  0  0  0  0
   -2.3866   -2.1119    2.0557 H   0  0  0  0  0  0  0  0  0  0  0  0
   -0.6194   -1.9027    1.9402 H   0  0  0  0  0  0  0  0  0  0  0  0
   -1.3518   -3.5028    1.6709 H   0  0  0  0  0  0  0  0  0  0  0  0
   -2.7974   -2.8009   -0.4313 C   0  0  0  0  0  0  0  0  0  0  0  0
   -3.6580   -2.5474    0.1876 H   0  0  0  0  0  0  0  0  0  0  0  0
   -2.6382   -3.8774   -0.4117 H   0  0  0  0  0  0  0  0  0  0  0  0
   -2.9848   -2.4773   -1.4521 H   0  0  0  0  0  0  0  0  0  0  0  0
   -0.0850   -0.6323   -2.5212 H   0  0  0  0  0  0  0  0  0  0  0  0
    2.0982   -0.0423    1.3598 C   0  0  0  0  0  0  0  0  0  0  0  0
    0.9812   -0.5156    1.5246 O   0  0  0  0  0  0  0  0  0  0  0  0
    2.6972    0.0636    0.1633 N   0  0  0  0  0  0  0  0  0  0  0  0
    2.1062    0.0041   -0.6645 H   0  0  0  0  0  0  0  0  0  0  0  0
    3.4701    0.7129    0.0606 H   0  0  0  0  0  0  0  0  0  0  0  0
    2.8413    0.4401    2.4280 N   0  0  0  0  0  0  0  0  0  0  0  0
    3.8446    0.4051    2.3262 H   0  0  0  0  0  0  0  0  0  0  0  0
    2.5092    0.1441    3.3342 H   0  0  0  0  0  0  0  0  0  0  0  0
    3.9058    3.4549    0.3669 C   0  0  0  0  0  0  0  0  0  0  0  0
    4.0197    2.4965   -0.3908 O   0  0  0  0  0  0  0  0  0  0  0  0
    4.2746    4.7050   -0.0090 N   0  0  0  0  0  0  0  0  0  0  0  0
    4.7889    4.8028   -0.8669 H   0  0  0  0  0  0  0  0  0  0  0  0
    4.3287    5.4582    0.6528 H   0  0  0  0  0  0  0  0  0  0  0  0
    3.3942    3.3367    1.6113 N   0  0  0  0  0  0  0  0  0  0  0  0
    3.2373    4.1419    2.1893 H   0  0  0  0  0  0  0  0  0  0  0  0
    3.0176    2.4474    1.9133 H   0  0  0  0  0  0  0  0  0  0  0  0
    1.7233    1.0478   -3.1237 C   0  0  0  0  0  0  0  0  0  0  0  0
    1.2354    0.3717   -2.2121 O   0  0  0  0  0  0  0  0  0  0  0  0
    2.7405    1.8985   -2.9255 N   0  0  0  0  0  0  0  0  0  0  0  0
    3.1630    2.0048   -2.0089 H   0  0  0  0  0  0  0  0  0  0  0  0
    3.1479    2.4032   -3.6913 H   0  0  0  0  0  0  0  0  0  0  0  0
    1.2401    0.9520   -4.3835 N   0  0  0  0  0  0  0  0  0  0  0  0
    1.5890    1.5145   -5.1373 H   0  0  0  0  0  0  0  0  0  0  0  0
    0.4539    0.3497   -4.5559 H   0  0  0  0  0  0  0  0  0  0  0  0
   -5.4480   -1.1021    2.4422 C   0  0  0  0  0  0  0  0  0  0  0  0
   -4.4441   -1.3730    1.7987 O   0  0  0  0  0  0  0  0  0  0  0  0
   -6.6935   -1.3971    1.9978 N   0  0  0  0  0  0  0  0  0  0  0  0
   -6.7984   -1.7569    1.0662 H   0  0  0  0  0  0  0  0  0  0  0  0
   -7.5172   -1.0811    2.4759 H   0  0  0  0  0  0  0  0  0  0  0  0
   -5.3875   -0.4890    3.6490 N   0  0  0  0  0  0  0  0  0  0  0  0
   -6.2006   -0.3604    4.2226 H   0  0  0  0  0  0  0  0  0  0  0  0
   -4.4861   -0.3354    4.0641 H   0  0  0  0  0  0  0  0  0  0  0  0
  1  2  1  0  0  0  0
  2  3  1  0  0  0  0
  2  4  1  0  0  0  0
  2  5  1  0  0  0  0
  5  6  1  0  0  0  0
  5  7  1  0  0  0  0
  5  8  1  0  0  0  0
  8  9  1  0  0  0  0
  9 10  1  0  0  0  0
  9 11  1  0  0  0  0
  9 12  1  0  0  0  0
  8 13  1  0  0  0  0
 13 14  1  0  0  0  0
 13 15  1  0  0  0  0
 13 16  1  0  0  0  0
  8 17  1  0  0  0  0
 17 18  1  0  0  0  0
 17 19  1  0  0  0  0
 17 20  1  0  0  0  0
  1 21  1  0  0  0  0
 22 23  2  0  0  0  0
 22 24  4  0  0  0  0
 24 25  1  0  0  0  0
 24 26  1  0  0  0  0
 22 27  1  0  0  0  0
 27 28  1  0  0  0  0
 27 29  1  0  0  0  0
 30 31  2  0  0  0  0
 30 32  4  0  0  0  0
 32 33  1  0  0  0  0
 32 34  1  0  0  0  0
 30 35  4  0  0  0  0
 35 36  1  0  0  0  0
 35 37  1  0  0  0  0
 38 39  4  0  0  0  0
 38 40  4  0  0  0  0
 40 41  1  0  0  0  0
 40 42  1  0  0  0  0
 38 43  4  0  0  0  0
 43 44  1  0  0  0  0
 43 45  1  0  0  0  0
 46 47  2  0  0  0  0
 46 48  4  0  0  0  0
 48 49  1  0  0  0  0
 48 50  1  0  0  0  0
 46 51  4  0  0  0  0
 51 52  1  0  0  0  0
 51 53  1  0  0  0  0
M  CHG  1   1   1
M  END
