 xtb: 6.6.1 (unknown-commit)
          01102415363D

 53 48  0     0  0            999 V2000
   -2.4809   -2.4887   -1.2486 O   0  0  0  0  0  0  0  0  0  0  0  0
   -1.8230   -1.2548   -1.2649 C   0  0  0  0  0  0  0  0  0  0  0  0
   -1.5084   -1.0857   -2.2972 H   0  0  0  0  0  0  0  0  0  0  0  0
   -2.5115   -0.4436   -0.9919 H   0  0  0  0  0  0  0  0  0  0  0  0
   -0.6369   -1.1493   -0.2956 C   0  0  0  0  0  0  0  0  0  0  0  0
   -0.9939   -1.3453    0.7161 H   0  0  0  0  0  0  0  0  0  0  0  0
   -0.2357   -0.1349   -0.3590 H   0  0  0  0  0  0  0  0  0  0  0  0
    0.5061   -2.0734   -0.5398 N   0  0  0  0  0  0  0  0  0  0  0  0
    1.5703   -1.7111    0.4136 C   0  0  0  0  0  0  0  0  0  0  0  0
    1.8729   -0.6820    0.2227 H   0  0  0  0  0  0  0  0  0  0  0  0
    2.4237   -2.3733    0.2853 H   0  0  0  0  0  0  0  0  0  0  0  0
    1.1927   -1.8084    1.4312 H   0  0  0  0  0  0  0  0  0  0  0  0
    1.0241   -1.9108   -1.9062 C   0  0  0  0  0  0  0  0  0  0  0  0
    0.2917   -2.2528   -2.6326 H   0  0  0  0  0  0  0  0  0  0  0  0
    1.9339   -2.4956   -2.0262 H   0  0  0  0  0  0  0  0  0  0  0  0
    1.2508   -0.8562   -2.0648 H   0  0  0  0  0  0  0  0  0  0  0  0
    0.1072   -3.4695   -0.3072 C   0  0  0  0  0  0  0  0  0  0  0  0
   -0.7356   -3.7232   -0.9482 H   0  0  0  0  0  0  0  0  0  0  0  0
   -0.1880   -3.5871    0.7336 H   0  0  0  0  0  0  0  0  0  0  0  0
    0.9430   -4.1335   -0.5192 H   0  0  0  0  0  0  0  0  0  0  0  0
   -2.8942   -2.6072   -0.3695 H   0  0  0  0  0  0  0  0  0  0  0  0
    1.6902    2.1855   -1.3052 C   0  0  0  0  0  0  0  0  0  0  0  0
    1.4192    1.0121   -1.0447 O   0  0  0  0  0  0  0  0  0  0  0  0
    2.8385    2.7747   -0.9166 N   0  0  0  0  0  0  0  0  0  0  0  0
    3.5301    2.2472   -0.4175 H   0  0  0  0  0  0  0  0  0  0  0  0
    3.0274    3.7224   -1.2052 H   0  0  0  0  0  0  0  0  0  0  0  0
    0.8455    2.9998   -1.9736 N   0  0  0  0  0  0  0  0  0  0  0  0
    1.1665    3.9196   -2.2369 H   0  0  0  0  0  0  0  0  0  0  0  0
    0.0137    2.6215   -2.3875 H   0  0  0  0  0  0  0  0  0  0  0  0
    2.8585    6.4615   -2.6482 C   0  0  0  0  0  0  0  0  0  0  0  0
    2.5437    5.3479   -2.2534 O   0  0  0  0  0  0  0  0  0  0  0  0
    4.1530    6.8414   -2.7827 N   0  0  0  0  0  0  0  0  0  0  0  0
    4.8665    6.1428   -2.6738 H   0  0  0  0  0  0  0  0  0  0  0  0
    4.4065    7.7043   -3.2283 H   0  0  0  0  0  0  0  0  0  0  0  0
    1.9360    7.3978   -2.9813 N   0  0  0  0  0  0  0  0  0  0  0  0
    2.1952    8.3473   -3.1779 H   0  0  0  0  0  0  0  0  0  0  0  0
    0.9716    7.2088   -2.7731 H   0  0  0  0  0  0  0  0  0  0  0  0
   -3.1329   -4.0275    1.7925 C   0  0  0  0  0  0  0  0  0  0  0  0
   -3.2617   -2.8831    1.3447 O   0  0  0  0  0  0  0  0  0  0  0  0
   -4.0725   -4.9714    1.5766 N   0  0  0  0  0  0  0  0  0  0  0  0
   -4.8769   -4.7312    1.0251 H   0  0  0  0  0  0  0  0  0  0  0  0
   -3.9758   -5.9150    1.9029 H   0  0  0  0  0  0  0  0  0  0  0  0
   -2.0371   -4.3916    2.4824 N   0  0  0  0  0  0  0  0  0  0  0  0
   -1.9796   -5.2797    2.9461 H   0  0  0  0  0  0  0  0  0  0  0  0
   -1.3588   -3.6660    2.7211 H   0  0  0  0  0  0  0  0  0  0  0  0
   -0.9530   -1.2559    3.4414 C   0  0  0  0  0  0  0  0  0  0  0  0
   -0.3409   -2.1899    2.9153 O   0  0  0  0  0  0  0  0  0  0  0  0
   -2.2040   -0.9343    3.0683 N   0  0  0  0  0  0  0  0  0  0  0  0
   -2.6908   -1.5552    2.4190 H   0  0  0  0  0  0  0  0  0  0  0  0
   -2.7326   -0.2312    3.5508 H   0  0  0  0  0  0  0  0  0  0  0  0
   -0.3700   -0.4764    4.3801 N   0  0  0  0  0  0  0  0  0  0  0  0
   -0.8640    0.2613    4.8470 H   0  0  0  0  0  0  0  0  0  0  0  0
    0.5546   -0.7101    4.6940 H   0  0  0  0  0  0  0  0  0  0  0  0
  1  2  1  0  0  0  0
  2  3  1  0  0  0  0
  2  4  1  0  0  0  0
  2  5  1  0  0  0  0
  5  6  1  0  0  0  0
  5  7  1  0  0  0  0
  5  8  1  0  0  0  0
  8  9  1  0  0  0  0
  9 10  1  0  0  0  0
  9 11  1  0  0  0  0
  9 12  1  0  0  0  0
  8 13  1  0  0  0  0
 13 14  1  0  0  0  0
 13 15  1  0  0  0  0
 13 16  1  0  0  0  0
  8 17  1  0  0  0  0
 17 18  1  0  0  0  0
 17 19  1  0  0  0  0
 17 20  1  0  0  0  0
  1 21  1  0  0  0  0
 22 23  4  0  0  0  0
 22 24  4  0  0  0  0
 24 25  1  0  0  0  0
 24 26  1  0  0  0  0
 22 27  4  0  0  0  0
 27 28  1  0  0  0  0
 27 29  1  0  0  0  0
 30 31  2  0  0  0  0
 30 32  4  0  0  0  0
 32 33  1  0  0  0  0
 32 34  1  0  0  0  0
 30 35  4  0  0  0  0
 35 36  1  0  0  0  0
 35 37  1  0  0  0  0
 38 39  4  0  0  0  0
 38 40  4  0  0  0  0
 40 41  1  0  0  0  0
 40 42  1  0  0  0  0
 38 43  4  0  0  0  0
 43 44  1  0  0  0  0
 43 45  1  0  0  0  0
 46 47  4  0  0  0  0
 46 48  4  0  0  0  0
 48 49  1  0  0  0  0
 48 50  1  0  0  0  0
 46 51  4  0  0  0  0
 51 52  1  0  0  0  0
 51 53  1  0  0  0  0
M  CHG  1   1   1
M  END
