  53

 O          1.2362574006       -2.6570876699       -0.1367073407
 C         -0.0645834994       -2.6475550701       -0.6391768956
 H         -0.0673814363       -3.2922937493       -1.5222443366
 H         -0.7652961518       -3.0848905962        0.0894111009
 C         -0.6156165652       -1.2513413113       -0.9574871072
 H         -0.6423149640       -0.6734654250       -0.0323059829
 H         -1.6243858566       -1.3724196751       -1.3561562110
 N          0.1494072279       -0.4432895398       -1.9478118027
 C          1.4446297328       -0.0239184806       -1.3890584141
 H          1.2841068010        0.4759246688       -0.4345674516
 H          1.9405499729        0.6559466789       -2.0786517982
 H          2.0737904640       -0.8953793583       -1.2220674472
 C         -0.6551493694        0.7553520976       -2.2444679619
 H         -0.8241399244        1.3097774912       -1.3208366265
 H         -1.6050457937        0.4442022715       -2.6758751588
 H         -0.1273537553        1.3896927816       -2.9532241733
 C          0.3519942492       -1.1975080634       -3.1929928341
 H          0.9991357289       -2.0526120299       -3.0154858297
 H          0.8174936616       -0.5568130380       -3.9394419615
 H         -0.6181086465       -1.5315742986       -3.5599207426
 H          1.2758408564       -1.9901456679        0.5997317128
 C          2.1332355282       -1.0126221450        2.6532773745
 O          1.3761265956       -0.7555328893        1.7150441988
 N          2.5784694774       -0.0686673746        3.4953443672
 H          2.3648955120        0.9075109525        3.3123805579
 H          3.2170961747       -0.2877886976        4.2375032913
 N          2.5271795736       -2.2873536985        2.9057265949
 H          3.2165584997       -2.4978502613        3.6038413317
 H          2.2907836358       -3.0061944686        2.2435162098
 C          2.3287123504        3.3520087970        1.9432559259
 O          2.0431389718        2.6463479078        2.9134646058
 N          3.3826482372        4.2019381277        1.9934328925
 H          3.8676275055        4.3051247722        2.8668563866
 H          3.5828338704        4.8531820442        1.2569920236
 N          1.6585181699        3.2792118588        0.7811817188
 H          1.8268632205        3.9479155237        0.0518949731
 H          0.8042305353        2.7137180538        0.7377023852
 C         -3.8149974299       -1.7364623821       -3.8048662905
 O         -2.8029734060       -1.3329496482       -3.2473404452
 N         -4.7670955038       -0.8943947743       -4.2725971080
 H         -4.5904718764        0.0938170918       -4.2473580859
 H         -5.5428508543       -1.2202330748       -4.8194467517
 N         -4.0569630231       -3.0556868490       -3.9935922852
 H         -4.9257696002       -3.3898145032       -4.3682932260
 H         -3.4315819301       -3.7248797828       -3.5821752791
 C         -1.1026568897        1.3118301750        1.7585059612
 O         -0.6484463458        1.7102421461        0.6825439507
 N         -0.5349210083        1.5869349763        2.9358381168
 H          0.4044307002        1.9948098760        2.9517263264
 H         -0.8609058950        1.1415264383        3.7744412475
 N         -2.2331833313        0.5449286082        1.7856516099
 H         -2.7066507649        0.3867266625        2.6578648236
 H         -2.8046932542        0.5345258459        0.9579876622
