 xtb: 6.6.1 (unknown-commit)
          01102418313D

 53 48  0     0  0            999 V2000
    1.2362   -2.6571   -0.1367 O   0  0  0  0  0  0  0  0  0  0  0  0
   -0.0646   -2.6476   -0.6392 C   0  0  0  0  0  0  0  0  0  0  0  0
   -0.0674   -3.2923   -1.5222 H   0  0  0  0  0  0  0  0  0  0  0  0
   -0.7653   -3.0849    0.0894 H   0  0  0  0  0  0  0  0  0  0  0  0
   -0.6156   -1.2513   -0.9575 C   0  0  0  0  0  0  0  0  0  0  0  0
   -0.6423   -0.6735   -0.0323 H   0  0  0  0  0  0  0  0  0  0  0  0
   -1.6244   -1.3724   -1.3561 H   0  0  0  0  0  0  0  0  0  0  0  0
    0.1494   -0.4433   -1.9478 N   0  0  0  0  0  0  0  0  0  0  0  0
    1.4446   -0.0239   -1.3891 C   0  0  0  0  0  0  0  0  0  0  0  0
    1.2841    0.4759   -0.4346 H   0  0  0  0  0  0  0  0  0  0  0  0
    1.9405    0.6559   -2.0787 H   0  0  0  0  0  0  0  0  0  0  0  0
    2.0738   -0.8954   -1.2221 H   0  0  0  0  0  0  0  0  0  0  0  0
   -0.6552    0.7554   -2.2445 C   0  0  0  0  0  0  0  0  0  0  0  0
   -0.8241    1.3098   -1.3208 H   0  0  0  0  0  0  0  0  0  0  0  0
   -1.6051    0.4442   -2.6759 H   0  0  0  0  0  0  0  0  0  0  0  0
   -0.1274    1.3897   -2.9532 H   0  0  0  0  0  0  0  0  0  0  0  0
    0.3520   -1.1975   -3.1930 C   0  0  0  0  0  0  0  0  0  0  0  0
    0.9991   -2.0526   -3.0155 H   0  0  0  0  0  0  0  0  0  0  0  0
    0.8175   -0.5568   -3.9394 H   0  0  0  0  0  0  0  0  0  0  0  0
   -0.6181   -1.5316   -3.5599 H   0  0  0  0  0  0  0  0  0  0  0  0
    1.2758   -1.9902    0.5997 H   0  0  0  0  0  0  0  0  0  0  0  0
    2.1332   -1.0126    2.6533 C   0  0  0  0  0  0  0  0  0  0  0  0
    1.3761   -0.7555    1.7150 O   0  0  0  0  0  0  0  0  0  0  0  0
    2.5785   -0.0687    3.4953 N   0  0  0  0  0  0  0  0  0  0  0  0
    2.3649    0.9075    3.3124 H   0  0  0  0  0  0  0  0  0  0  0  0
    3.2171   -0.2878    4.2375 H   0  0  0  0  0  0  0  0  0  0  0  0
    2.5272   -2.2874    2.9057 N   0  0  0  0  0  0  0  0  0  0  0  0
    3.2166   -2.4979    3.6038 H   0  0  0  0  0  0  0  0  0  0  0  0
    2.2908   -3.0062    2.2435 H   0  0  0  0  0  0  0  0  0  0  0  0
    2.3287    3.3520    1.9432 C   0  0  0  0  0  0  0  0  0  0  0  0
    2.0432    2.6463    2.9135 O   0  0  0  0  0  0  0  0  0  0  0  0
    3.3827    4.2019    1.9934 N   0  0  0  0  0  0  0  0  0  0  0  0
    3.8677    4.3051    2.8668 H   0  0  0  0  0  0  0  0  0  0  0  0
    3.5829    4.8532    1.2570 H   0  0  0  0  0  0  0  0  0  0  0  0
    1.6585    3.2792    0.7812 N   0  0  0  0  0  0  0  0  0  0  0  0
    1.8269    3.9479    0.0519 H   0  0  0  0  0  0  0  0  0  0  0  0
    0.8042    2.7137    0.7377 H   0  0  0  0  0  0  0  0  0  0  0  0
   -3.8150   -1.7364   -3.8048 C   0  0  0  0  0  0  0  0  0  0  0  0
   -2.8030   -1.3329   -3.2473 O   0  0  0  0  0  0  0  0  0  0  0  0
   -4.7671   -0.8944   -4.2726 N   0  0  0  0  0  0  0  0  0  0  0  0
   -4.5905    0.0938   -4.2473 H   0  0  0  0  0  0  0  0  0  0  0  0
   -5.5429   -1.2202   -4.8194 H   0  0  0  0  0  0  0  0  0  0  0  0
   -4.0570   -3.0557   -3.9936 N   0  0  0  0  0  0  0  0  0  0  0  0
   -4.9258   -3.3898   -4.3683 H   0  0  0  0  0  0  0  0  0  0  0  0
   -3.4316   -3.7249   -3.5822 H   0  0  0  0  0  0  0  0  0  0  0  0
   -1.1026    1.3118    1.7585 C   0  0  0  0  0  0  0  0  0  0  0  0
   -0.6484    1.7102    0.6825 O   0  0  0  0  0  0  0  0  0  0  0  0
   -0.5349    1.5869    2.9358 N   0  0  0  0  0  0  0  0  0  0  0  0
    0.4045    1.9948    2.9517 H   0  0  0  0  0  0  0  0  0  0  0  0
   -0.8609    1.1415    3.7744 H   0  0  0  0  0  0  0  0  0  0  0  0
   -2.2332    0.5449    1.7857 N   0  0  0  0  0  0  0  0  0  0  0  0
   -2.7066    0.3867    2.6579 H   0  0  0  0  0  0  0  0  0  0  0  0
   -2.8047    0.5345    0.9580 H   0  0  0  0  0  0  0  0  0  0  0  0
  1  2  1  0  0  0  0
  2  3  1  0  0  0  0
  2  4  1  0  0  0  0
  2  5  1  0  0  0  0
  5  6  1  0  0  0  0
  5  7  1  0  0  0  0
  5  8  1  0  0  0  0
  8  9  1  0  0  0  0
  9 10  1  0  0  0  0
  9 11  1  0  0  0  0
  9 12  1  0  0  0  0
  8 13  1  0  0  0  0
 13 14  1  0  0  0  0
 13 15  1  0  0  0  0
 13 16  1  0  0  0  0
  8 17  1  0  0  0  0
 17 18  1  0  0  0  0
 17 19  1  0  0  0  0
 17 20  1  0  0  0  0
  1 21  1  0  0  0  0
 22 23  4  0  0  0  0
 22 24  4  0  0  0  0
 24 25  1  0  0  0  0
 24 26  1  0  0  0  0
 22 27  4  0  0  0  0
 27 28  1  0  0  0  0
 27 29  1  0  0  0  0
 30 31  4  0  0  0  0
 30 32  4  0  0  0  0
 32 33  1  0  0  0  0
 32 34  1  0  0  0  0
 30 35  4  0  0  0  0
 35 36  1  0  0  0  0
 35 37  1  0  0  0  0
 38 39  2  0  0  0  0
 38 40  4  0  0  0  0
 40 41  1  0  0  0  0
 40 42  1  0  0  0  0
 38 43  4  0  0  0  0
 43 44  1  0  0  0  0
 43 45  1  0  0  0  0
 46 47  4  0  0  0  0
 46 48  4  0  0  0  0
 48 49  1  0  0  0  0
 48 50  1  0  0  0  0
 46 51  1  0  0  0  0
 51 52  1  0  0  0  0
 51 53  1  0  0  0  0
M  CHG  1   1   1
M  END
