  53

 O         -0.6120163174       -0.6594033194        2.3808044603
 C         -1.0929474999        0.3177879854        1.4889555994
 H         -2.1815550881        0.2263265635        1.4887354272
 H         -0.8301392830        1.3184556372        1.8629495752
 C         -0.5104937931        0.2091536977        0.0817883959
 H          0.5638417380        0.0333803904        0.1865965030
 H         -0.6691762164        1.1448996939       -0.4543901673
 N         -1.0501206232       -0.8813084450       -0.7767943462
 C         -1.0772975281       -2.1640646926       -0.0569847655
 H         -0.1055813240       -2.3439323440        0.3987431940
 H         -1.3117556871       -2.9684978376       -0.7510920863
 H         -1.8480198420       -2.1287143315        0.7123045658
 C         -0.1552393988       -0.9937735295       -1.9391043889
 H          0.8442587926       -1.2685353461       -1.6078140902
 H         -0.1032527600       -0.0359310358       -2.4505006152
 H         -0.5255973019       -1.7511138362       -2.6272061956
 C         -2.4069814657       -0.5463604721       -1.2375004291
 H         -3.0957534167       -0.5530354572       -0.3944635727
 H         -2.7440336154       -1.2903957692       -1.9563694868
 H         -2.4009540482        0.4336623978       -1.7105666268
 H          0.3190074634       -0.8480835734        2.1731830198
 C          3.0455745941       -1.6126706593        1.0257000963
 O          1.8483256587       -1.3635060900        1.1469685835
 N          3.8570581126       -0.8585924300        0.2583631495
 H          3.4401428322       -0.1213045131       -0.3116248379
 H          4.7933035058       -1.1549587325        0.0501975800
 N          3.6151819669       -2.6695131395        1.6559079329
 H          4.6079416621       -2.8166122256        1.6545391806
 H          3.0643688595       -3.1801840475        2.3229527367
 C          2.3737931097        2.2385453988       -0.2099860822
 O          2.5774270831        1.3119646242       -1.0026977042
 N          3.2102652726        2.4698678123        0.8269979849
 H          4.0285513123        1.8976181068        0.9317306108
 H          3.0767901562        3.2360714525        1.4604681223
 N          1.3096700383        3.0467760757       -0.3245731508
 H          1.1566117111        3.8111755118        0.3065072057
 H          0.6305977874        2.8702135789       -1.0653262385
 C          0.2025372213        2.3417426597       -3.4687667689
 O         -0.4327562176        2.3156920409       -2.4113943473
 N          1.4490459291        1.8371416936       -3.5530982593
 H          1.9212145787        1.5738932693       -2.6864963314
 H          2.0048706569        1.9601372346       -4.3797726216
 N         -0.3499368571        2.8106167355       -4.6102094688
 H          0.1718125868        2.8970585590       -5.4628697120
 H         -1.2662868890        3.2194668709       -4.5658234684
 C         -3.9972712156       -1.7744613457        2.5706192522
 O         -3.7614082690       -1.4215621150        1.4211388366
 N         -5.2591441268       -2.0336740013        2.9949801237
 H         -5.9936162103       -2.0447503910        2.3098358980
 H         -5.4419037587       -2.4503298849        3.8895017867
 N         -3.0130726315       -1.9413777632        3.4851559835
 H         -3.2323732915       -2.0763325014        4.4555617403
 H         -2.0920638349       -1.5889061413        3.2563471909
