 xtb: 6.6.1 (unknown-commit)
          01102418283D

 53 48  0     0  0            999 V2000
   -0.6120   -0.6594    2.3808 O   0  0  0  0  0  0  0  0  0  0  0  0
   -1.0929    0.3178    1.4890 C   0  0  0  0  0  0  0  0  0  0  0  0
   -2.1815    0.2263    1.4887 H   0  0  0  0  0  0  0  0  0  0  0  0
   -0.8301    1.3185    1.8630 H   0  0  0  0  0  0  0  0  0  0  0  0
   -0.5105    0.2092    0.0818 C   0  0  0  0  0  0  0  0  0  0  0  0
    0.5638    0.0334    0.1866 H   0  0  0  0  0  0  0  0  0  0  0  0
   -0.6692    1.1449   -0.4544 H   0  0  0  0  0  0  0  0  0  0  0  0
   -1.0501   -0.8813   -0.7768 N   0  0  0  0  0  0  0  0  0  0  0  0
   -1.0773   -2.1641   -0.0570 C   0  0  0  0  0  0  0  0  0  0  0  0
   -0.1056   -2.3439    0.3987 H   0  0  0  0  0  0  0  0  0  0  0  0
   -1.3118   -2.9685   -0.7511 H   0  0  0  0  0  0  0  0  0  0  0  0
   -1.8480   -2.1287    0.7123 H   0  0  0  0  0  0  0  0  0  0  0  0
   -0.1553   -0.9938   -1.9391 C   0  0  0  0  0  0  0  0  0  0  0  0
    0.8442   -1.2685   -1.6078 H   0  0  0  0  0  0  0  0  0  0  0  0
   -0.1033   -0.0359   -2.4505 H   0  0  0  0  0  0  0  0  0  0  0  0
   -0.5256   -1.7511   -2.6272 H   0  0  0  0  0  0  0  0  0  0  0  0
   -2.4070   -0.5464   -1.2375 C   0  0  0  0  0  0  0  0  0  0  0  0
   -3.0958   -0.5530   -0.3945 H   0  0  0  0  0  0  0  0  0  0  0  0
   -2.7440   -1.2904   -1.9564 H   0  0  0  0  0  0  0  0  0  0  0  0
   -2.4010    0.4337   -1.7106 H   0  0  0  0  0  0  0  0  0  0  0  0
    0.3190   -0.8481    2.1732 H   0  0  0  0  0  0  0  0  0  0  0  0
    3.0456   -1.6127    1.0257 C   0  0  0  0  0  0  0  0  0  0  0  0
    1.8483   -1.3635    1.1470 O   0  0  0  0  0  0  0  0  0  0  0  0
    3.8571   -0.8586    0.2584 N   0  0  0  0  0  0  0  0  0  0  0  0
    3.4401   -0.1213   -0.3116 H   0  0  0  0  0  0  0  0  0  0  0  0
    4.7933   -1.1550    0.0502 H   0  0  0  0  0  0  0  0  0  0  0  0
    3.6152   -2.6695    1.6559 N   0  0  0  0  0  0  0  0  0  0  0  0
    4.6079   -2.8166    1.6545 H   0  0  0  0  0  0  0  0  0  0  0  0
    3.0644   -3.1802    2.3229 H   0  0  0  0  0  0  0  0  0  0  0  0
    2.3738    2.2385   -0.2100 C   0  0  0  0  0  0  0  0  0  0  0  0
    2.5774    1.3119   -1.0027 O   0  0  0  0  0  0  0  0  0  0  0  0
    3.2103    2.4699    0.8270 N   0  0  0  0  0  0  0  0  0  0  0  0
    4.0286    1.8976    0.9317 H   0  0  0  0  0  0  0  0  0  0  0  0
    3.0768    3.2361    1.4605 H   0  0  0  0  0  0  0  0  0  0  0  0
    1.3097    3.0468   -0.3246 N   0  0  0  0  0  0  0  0  0  0  0  0
    1.1566    3.8112    0.3065 H   0  0  0  0  0  0  0  0  0  0  0  0
    0.6306    2.8702   -1.0653 H   0  0  0  0  0  0  0  0  0  0  0  0
    0.2025    2.3417   -3.4688 C   0  0  0  0  0  0  0  0  0  0  0  0
   -0.4328    2.3157   -2.4114 O   0  0  0  0  0  0  0  0  0  0  0  0
    1.4490    1.8371   -3.5531 N   0  0  0  0  0  0  0  0  0  0  0  0
    1.9212    1.5739   -2.6865 H   0  0  0  0  0  0  0  0  0  0  0  0
    2.0049    1.9601   -4.3798 H   0  0  0  0  0  0  0  0  0  0  0  0
   -0.3499    2.8106   -4.6102 N   0  0  0  0  0  0  0  0  0  0  0  0
    0.1718    2.8970   -5.4629 H   0  0  0  0  0  0  0  0  0  0  0  0
   -1.2663    3.2195   -4.5658 H   0  0  0  0  0  0  0  0  0  0  0  0
   -3.9973   -1.7744    2.5706 C   0  0  0  0  0  0  0  0  0  0  0  0
   -3.7614   -1.4215    1.4212 O   0  0  0  0  0  0  0  0  0  0  0  0
   -5.2591   -2.0336    2.9950 N   0  0  0  0  0  0  0  0  0  0  0  0
   -5.9936   -2.0447    2.3099 H   0  0  0  0  0  0  0  0  0  0  0  0
   -5.4419   -2.4503    3.8895 H   0  0  0  0  0  0  0  0  0  0  0  0
   -3.0131   -1.9414    3.4852 N   0  0  0  0  0  0  0  0  0  0  0  0
   -3.2324   -2.0763    4.4556 H   0  0  0  0  0  0  0  0  0  0  0  0
   -2.0921   -1.5889    3.2564 H   0  0  0  0  0  0  0  0  0  0  0  0
  1  2  1  0  0  0  0
  2  3  1  0  0  0  0
  2  4  1  0  0  0  0
  2  5  1  0  0  0  0
  5  6  1  0  0  0  0
  5  7  1  0  0  0  0
  5  8  1  0  0  0  0
  8  9  1  0  0  0  0
  9 10  1  0  0  0  0
  9 11  1  0  0  0  0
  9 12  1  0  0  0  0
  8 13  1  0  0  0  0
 13 14  1  0  0  0  0
 13 15  1  0  0  0  0
 13 16  1  0  0  0  0
  8 17  1  0  0  0  0
 17 18  1  0  0  0  0
 17 19  1  0  0  0  0
 17 20  1  0  0  0  0
  1 21  1  0  0  0  0
 22 23  2  0  0  0  0
 22 24  4  0  0  0  0
 24 25  1  0  0  0  0
 24 26  1  0  0  0  0
 22 27  4  0  0  0  0
 27 28  1  0  0  0  0
 27 29  1  0  0  0  0
 30 31  4  0  0  0  0
 30 32  4  0  0  0  0
 32 33  1  0  0  0  0
 32 34  1  0  0  0  0
 30 35  4  0  0  0  0
 35 36  1  0  0  0  0
 35 37  1  0  0  0  0
 38 39  4  0  0  0  0
 38 40  4  0  0  0  0
 40 41  1  0  0  0  0
 40 42  1  0  0  0  0
 38 43  4  0  0  0  0
 43 44  1  0  0  0  0
 43 45  1  0  0  0  0
 46 47  2  0  0  0  0
 46 48  4  0  0  0  0
 48 49  1  0  0  0  0
 48 50  1  0  0  0  0
 46 51  4  0  0  0  0
 51 52  1  0  0  0  0
 51 53  1  0  0  0  0
M  CHG  1   1   1
M  END
