53
 xtb: 6.6.1 (unknown-commit)
O            2.20316563821240        1.71821354165163       -0.37662503482236
C            2.17295381192308        0.56198413223392       -1.16042250464702
H            2.38930752437447        0.88042597507053       -2.18120682644089
H            2.96331562671457       -0.13574037178495       -0.85573179210524
C            0.85647534373039       -0.22160758827982       -1.07170007131301
H            0.67165680682715       -0.47627474880339       -0.02536575170006
H            0.98759506128109       -1.14703123245116       -1.62737113345918
N           -0.35524038388677        0.47681905908244       -1.57668473475511
C           -0.73964795664701        1.56473772541834       -0.66114847687000
H           -0.97096584649252        1.14290141549524        0.31473662740275
H           -1.61630572025742        2.06808141111598       -1.06200220365205
H            0.08600305714248        2.27092013130058       -0.55779492073509
C           -1.46436599307061       -0.48970354150837       -1.62135907353359
H           -1.61123468228521       -0.89921593126250       -0.62711076409339
H           -1.23193660469912       -1.28998865334175       -2.31805467686835
H           -2.36105388491979        0.03379271765299       -1.95056903592414
C           -0.15720701355152        1.03410183179611       -2.92270138070984
H            0.20240937970874        0.26800552663765       -3.59946720557459
H            0.56559533152666        1.85476506967458       -2.88620785227371
H           -1.10951131671041        1.42712029511030       -3.27363002073724
H            2.16857019051361        1.43846031873946        0.56610467605823
C            3.27586502599265       -2.55254300260702        0.58207284214985
O            2.18466392161372       -2.66370668029701        0.02967588005972
N            4.33246029061710       -3.32145338937666        0.21132841182858
H            4.17008536709871       -4.06425667195198       -0.44042363281474
H            5.19331247200716       -3.32786205977541        0.73182381466759
N            3.50240565948213       -1.67688909846628        1.58361202224888
H            4.43548176177406       -1.52311913913510        1.92277956609031
H            2.82251794374789       -0.94738841936547        1.77441007762630
C           -4.10104359921028        2.52111292442652       -3.25938694132485
O           -3.14100606001546        1.93246945942015       -2.78184797121111
N           -5.34579067293307        1.96474944597149       -3.29027565989765
H           -5.50973306614403        1.17822640350108       -2.65671176516169
H           -6.15794654882745        2.53102991205505       -3.50430235193617
N           -3.98928298584134        3.77094255920376       -3.79437209499332
H           -4.75869985598910        4.15003935660697       -4.35861945752855
H           -3.06607553806675        4.09386440093953       -4.04399578449548
C           -1.04075047467992       -2.27194236547506        1.86229023339700
O           -1.06355886012312       -1.11211788688665        1.44036494792877
N           -1.93660711282248       -2.68662961190607        2.79908250936282
H           -2.71273984947524       -2.09364909815428        3.00650899927375
H           -2.02497763307991       -3.66660303598245        3.03028159039884
N           -0.14873950823131       -3.17629322247471        1.44186440253717
H           -0.11506473633408       -4.09540793810147        1.84335636207575
H            0.64550425355386       -2.89456886238751        0.85468619494109
C            1.24185162815999        1.11307671285179        3.03228101075857
O            1.91808750315871        0.64491095977742        2.11447559232987
N            1.80473322306710        1.88825851806011        3.99041670223574
H            2.75533168723772        2.16130711555339        3.88136526297937
H            1.24376187765613        2.36499877927363        4.68015346721174
N           -0.08188048121390        0.89679025942512        3.12265660228953
H           -0.60317339786264        1.17222072215879        3.93793759186443
H           -0.49868017001242        0.18813792021002        2.50962580788608
