 xtb: 6.6.1 (unknown-commit)
          01102418343D

 53 48  0     0  0            999 V2000
    1.9793   -3.1331    3.3057 O   0  0  0  0  0  0  0  0  0  0  0  0
    2.9729   -2.2942    2.7612 C   0  0  0  0  0  0  0  0  0  0  0  0
    3.4217   -1.6728    3.5493 H   0  0  0  0  0  0  0  0  0  0  0  0
    3.7771   -2.8889    2.3087 H   0  0  0  0  0  0  0  0  0  0  0  0
    2.4028   -1.4225    1.6406 C   0  0  0  0  0  0  0  0  0  0  0  0
    2.0226   -2.0536    0.8317 H   0  0  0  0  0  0  0  0  0  0  0  0
    3.2272   -0.8187    1.2564 H   0  0  0  0  0  0  0  0  0  0  0  0
    1.2878   -0.5105    2.0053 N   0  0  0  0  0  0  0  0  0  0  0  0
    0.0347   -1.2709    2.1600 C   0  0  0  0  0  0  0  0  0  0  0  0
   -0.2142   -1.7215    1.2014 H   0  0  0  0  0  0  0  0  0  0  0  0
   -0.7516   -0.5870    2.4684 H   0  0  0  0  0  0  0  0  0  0  0  0
    0.1678   -2.0511    2.9040 H   0  0  0  0  0  0  0  0  0  0  0  0
    1.1081    0.4401    0.8943 C   0  0  0  0  0  0  0  0  0  0  0  0
    0.9144   -0.1148   -0.0228 H   0  0  0  0  0  0  0  0  0  0  0  0
    1.9972    1.0542    0.7695 H   0  0  0  0  0  0  0  0  0  0  0  0
    0.2576    1.0833    1.1091 H   0  0  0  0  0  0  0  0  0  0  0  0
    1.5424    0.2396    3.2427 C   0  0  0  0  0  0  0  0  0  0  0  0
    2.4865    0.7770    3.1754 H   0  0  0  0  0  0  0  0  0  0  0  0
    1.5635   -0.4361    4.0941 H   0  0  0  0  0  0  0  0  0  0  0  0
    0.7277    0.9509    3.3829 H   0  0  0  0  0  0  0  0  0  0  0  0
    2.3893   -3.8099    3.8532 H   0  0  0  0  0  0  0  0  0  0  0  0
    0.5138   -2.8768   -1.7533 C   0  0  0  0  0  0  0  0  0  0  0  0
    0.5719   -2.1268   -0.7828 O   0  0  0  0  0  0  0  0  0  0  0  0
    0.1715   -2.4657   -2.9843 N   0  0  0  0  0  0  0  0  0  0  0  0
    0.0171   -1.4832   -3.1855 H   0  0  0  0  0  0  0  0  0  0  0  0
    0.1984   -3.0961   -3.7648 H   0  0  0  0  0  0  0  0  0  0  0  0
    0.8162   -4.2014   -1.6326 N   0  0  0  0  0  0  0  0  0  0  0  0
    0.6340   -4.8476   -2.3789 H   0  0  0  0  0  0  0  0  0  0  0  0
    0.9276   -4.5814   -0.7095 H   0  0  0  0  0  0  0  0  0  0  0  0
   -1.4499    2.9282    2.5593 C   0  0  0  0  0  0  0  0  0  0  0  0
   -1.2406    1.7183    2.6920 O   0  0  0  0  0  0  0  0  0  0  0  0
   -1.5776    3.7387    3.6401 N   0  0  0  0  0  0  0  0  0  0  0  0
   -1.6563    3.3110    4.5459 H   0  0  0  0  0  0  0  0  0  0  0  0
   -1.8789    4.6917    3.5467 H   0  0  0  0  0  0  0  0  0  0  0  0
   -1.5042    3.5062    1.3515 N   0  0  0  0  0  0  0  0  0  0  0  0
   -1.7020    4.4836    1.2439 H   0  0  0  0  0  0  0  0  0  0  0  0
   -1.4090    2.9198    0.5157 H   0  0  0  0  0  0  0  0  0  0  0  0
    0.0758    1.2772   -4.0760 C   0  0  0  0  0  0  0  0  0  0  0  0
   -0.4246    0.1680   -3.8749 O   0  0  0  0  0  0  0  0  0  0  0  0
    0.7530    1.5352   -5.2251 N   0  0  0  0  0  0  0  0  0  0  0  0
    0.7007    0.8532   -5.9612 H   0  0  0  0  0  0  0  0  0  0  0  0
    1.0261    2.4688   -5.4735 H   0  0  0  0  0  0  0  0  0  0  0  0
    0.0181    2.2624   -3.1699 N   0  0  0  0  0  0  0  0  0  0  0  0
    0.4147    3.1652   -3.3538 H   0  0  0  0  0  0  0  0  0  0  0  0
   -0.4582    2.0998   -2.2777 H   0  0  0  0  0  0  0  0  0  0  0  0
   -1.9492    0.6774   -0.6792 C   0  0  0  0  0  0  0  0  0  0  0  0
   -1.2639    1.7097   -0.7599 O   0  0  0  0  0  0  0  0  0  0  0  0
   -2.4834    0.3022    0.5013 N   0  0  0  0  0  0  0  0  0  0  0  0
   -2.2349    0.8190    1.3376 H   0  0  0  0  0  0  0  0  0  0  0  0
   -3.0506   -0.5205    0.5834 H   0  0  0  0  0  0  0  0  0  0  0  0
   -2.2136   -0.0827   -1.7506 N   0  0  0  0  0  0  0  0  0  0  0  0
   -2.6704   -0.9698   -1.6395 H   0  0  0  0  0  0  0  0  0  0  0  0
   -1.6599    0.0584   -2.5990 H   0  0  0  0  0  0  0  0  0  0  0  0
  1  2  1  0  0  0  0
  2  3  1  0  0  0  0
  2  4  1  0  0  0  0
  2  5  1  0  0  0  0
  5  6  1  0  0  0  0
  5  7  1  0  0  0  0
  5  8  1  0  0  0  0
  8  9  1  0  0  0  0
  9 10  1  0  0  0  0
  9 11  1  0  0  0  0
  9 12  1  0  0  0  0
  8 13  1  0  0  0  0
 13 14  1  0  0  0  0
 13 15  1  0  0  0  0
 13 16  1  0  0  0  0
  8 17  1  0  0  0  0
 17 18  1  0  0  0  0
 17 19  1  0  0  0  0
 17 20  1  0  0  0  0
  1 21  1  0  0  0  0
 22 23  2  0  0  0  0
 22 24  4  0  0  0  0
 24 25  1  0  0  0  0
 24 26  1  0  0  0  0
 22 27  1  0  0  0  0
 27 28  1  0  0  0  0
 27 29  1  0  0  0  0
 30 31  4  0  0  0  0
 30 32  1  0  0  0  0
 32 33  1  0  0  0  0
 32 34  1  0  0  0  0
 30 35  4  0  0  0  0
 35 36  1  0  0  0  0
 35 37  1  0  0  0  0
 38 39  4  0  0  0  0
 38 40  1  0  0  0  0
 40 41  1  0  0  0  0
 40 42  1  0  0  0  0
 38 43  4  0  0  0  0
 43 44  1  0  0  0  0
 43 45  1  0  0  0  0
 46 47  4  0  0  0  0
 46 48  4  0  0  0  0
 48 49  1  0  0  0  0
 48 50  1  0  0  0  0
 46 51  4  0  0  0  0
 51 52  1  0  0  0  0
 51 53  1  0  0  0  0
M  CHG  1   1   1
M  END
