  53

 O         -1.5427927823       -2.4283242501        0.3552967865
 C         -2.1188044105       -1.9101379817       -0.8138874847
 H         -1.3050264635       -1.7709899849       -1.5299530165
 H         -2.8203815163       -2.6449854526       -1.2370096587
 C         -2.9198571461       -0.6199833919       -0.5990494097
 H         -3.5674050720       -0.7762607142        0.2684087103
 H         -3.5413551846       -0.4486162245       -1.4802864394
 N         -2.1258420155        0.6113641474       -0.3517111255
 C         -1.2420339983        0.4416701601        0.8142772696
 H         -1.8213667596        0.1073127000        1.6720494209
 H         -0.7670213111        1.3992123943        1.0251811364
 H         -0.4742805859       -0.2918369437        0.5858312304
 C         -3.0468341113        1.7251092830       -0.0687100607
 H         -3.6386381028        1.5048542074        0.8175320491
 H         -3.7144641504        1.8910265552       -0.9121656523
 H         -2.4591688907        2.6259472673        0.1060750016
 C         -1.3132839779        0.9703331484       -1.5260479849
 H         -1.9412343863        1.0473587000       -2.4105377378
 H         -0.5325971992        0.2303713006       -1.6827798804
 H         -0.8381779272        1.9314942771       -1.3236158392
 H         -2.1635164115       -2.2511943634        1.1025501616
 C          1.9607028624       -1.3670825525       -0.2096007412
 O          1.2510167166       -0.6485715520       -0.9315119841
 N          3.2767975105       -1.1565032195       -0.0827776574
 H          3.6949512484       -0.3201964402       -0.4992266833
 H          3.8327930448       -1.7027584516        0.5491547665
 N          1.4152328477       -2.3854216113        0.4884883273
 H          1.9817023553       -3.0156391864        1.0250230039
 H          0.4273800261       -2.5784657370        0.3923939098
 C          1.1717066928        3.2108582930        0.1069108522
 O         -0.0580589819        3.1972272555        0.1057100725
 N          1.9071010130        2.0828598814        0.0131452698
 H          1.4512119418        1.2279254669       -0.2758610368
 H          2.8978871883        2.1133563591       -0.1800752343
 N          1.8718773459        4.3674183263        0.2184694915
 H          2.8657493474        4.3567200823        0.3595983755
 H          1.3682165556        5.2056735137        0.4482915546
 C          3.9435560523        1.1668259539       -2.5381067678
 O          4.2634972217        1.1465015277       -1.3496342844
 N          4.7421268749        1.7351598248       -3.4709805513
 H          5.6289378910        2.1044755887       -3.1788924547
 H          4.5167685095        1.7374739993       -4.4482729136
 N          2.7698103345        0.6630456408       -2.9676070140
 H          2.5510475654        0.6053557073       -3.9447698634
 H          2.1774827445        0.1748628107       -2.2973230823
 C         -3.6082208625       -2.6024868155        3.1267521289
 O         -3.3075718122       -1.7557238867        2.2857229597
 N         -3.0860663115       -3.8474261777        3.1015256198
 H         -2.4453368291       -4.0975353682        2.3686421661
 H         -3.3397902292       -4.5475807934        3.7738177274
 N         -4.4801050778       -2.3384042215        4.1200622113
 H         -4.7162849472       -3.0135407163        4.8236271877
 H         -4.8732735805       -1.4169562454        4.1890592989
