  53

 O         -1.5361021515        1.4589684976       -0.4894714714
 C         -0.8017776155        0.2664477406       -0.6820944676
 H         -0.9886628196       -0.3784342861        0.1776569265
 H         -1.1832114587       -0.2495885095       -1.5735433316
 C          0.6892285948        0.4869091773       -0.9141626498
 H          0.8011697226        1.2988332783       -1.6373127873
 H          1.1247321179       -0.4272879633       -1.3237739205
 N          1.5076372046        0.8424065194        0.2787066962
 C          0.9377009529        1.9892985267        0.9997234442
 H          0.7461892029        2.8060684943        0.3057692368
 H          1.6343340457        2.3229377875        1.7666929302
 H          0.0088503136        1.6894248487        1.4797847035
 C          2.8547785404        1.1808256877       -0.2091348867
 H          2.8058952861        2.0475776655       -0.8652842313
 H          3.2543697418        0.3276620592       -0.7562617895
 H          3.5089264508        1.4079281239        0.6302486184
 C          1.6135170120       -0.3079666462        1.1885782190
 H          2.2867562286       -0.0665454495        2.0080470464
 H          2.0001527297       -1.1600082487        0.6331898338
 H          0.6373441631       -0.5549533825        1.5958972491
 H         -1.0753858230        2.1812386722       -0.9748686405
 C          2.7878528826       -2.8605357243       -1.6864159007
 O          2.8467134173       -1.6786915111       -1.3643874472
 N          1.7167414939       -3.6314109347       -1.4130478936
 H          0.9840612247       -3.2676412581       -0.8024965489
 H          1.7462973835       -4.6189781115       -1.5905006091
 N          3.8136997535       -3.4676183849       -2.3416158617
 H          3.7185021138       -4.3846045050       -2.7382712609
 H          4.5672132496       -2.8909463661       -2.6709868863
 C         -0.8255257015        4.1232256139       -2.5304799878
 O         -0.1572243162        3.4139786344       -1.7807237957
 N         -2.1526448064        3.9323717177       -2.6957093904
 H         -2.6012241706        3.1729034387       -2.2131064777
 H         -2.6989618400        4.4888395180       -3.3267639935
 N         -0.2734387776        5.1323925255       -3.2347592653
 H         -0.8129484398        5.7331006124       -3.8301298597
 H          0.7055974321        5.3237422287       -3.1201551406
 C         -0.8364740239       -3.3821848873        1.2498249652
 O         -0.2618197299       -2.7286793868        0.3874256274
 N         -1.3903898735       -2.8149630125        2.3379935575
 H         -1.2868881036       -1.8154816499        2.4863772170
 H         -1.7924051921       -3.3717780946        3.0692279170
 N         -0.9310583198       -4.7410344638        1.1756806409
 H         -1.5423714686       -5.2513144590        1.7874505143
 H         -0.6823046543       -5.1811664303        0.3076082099
 C         -2.2656882512        0.6617647288        2.9243810240
 O         -1.2593769667        0.0112875993        2.6535807937
 N         -2.7553036589        1.6005783897        2.0889393873
 H         -2.3938566507        1.6214737633        1.1384355379
 H         -3.6531814784        2.0166308862        2.2589798481
 N         -2.9400039728        0.4753471656        4.0891043708
 H         -3.6602217675        1.1115817116        4.3805769591
 H         -2.5024899947       -0.0833652037        4.8009080743
