  53

 O         -2.1315823835        0.9115830422        2.3875537893
 C         -0.7879562318        1.2482805358        2.1854054201
 H         -0.7535312677        2.3381140595        2.1199075487
 H         -0.1791212957        0.9487938749        3.0502941321
 C         -0.1600748126        0.5784194290        0.9587673715
 H         -0.3868457183       -0.4866274374        1.0163462497
 H          0.9250713637        0.7049465571        0.9815321958
 N         -0.6208547446        1.0663295475       -0.3666487564
 C         -2.0843184902        1.0131705935       -0.4964534725
 H         -2.4292022056       -0.0085577929       -0.3510768698
 H         -2.3558203997        1.3545200851       -1.4941530520
 H         -2.5560925768        1.6433816522        0.2533552814
 C         -0.0227367348        0.2037203403       -1.3998182322
 H         -0.3447532346       -0.8259324028       -1.2594632394
 H          1.0610502969        0.2575131311       -1.3150106839
 H         -0.3382402991        0.5607661011       -2.3785827504
 C         -0.1534257303        2.4399642113       -0.6075214394
 H          0.9308082715        2.4643559864       -0.5137017932
 H         -0.6005261479        3.1252398270        0.1073483009
 H         -0.4478554173        2.7293198138       -1.6154225424
 H         -2.2079994727       -0.0557897805        2.4469455332
 C          3.7380638550        0.2824270444       -0.1584905827
 O          2.7212327914        0.9627510871       -0.1053671637
 N          4.8670887373        0.7346051980       -0.7656339878
 H          4.8956568681        1.7016730073       -1.0370684081
 H          5.7429143820        0.2524529811       -0.6732603405
 N          3.8104278638       -0.9595015577        0.3758486629
 H          4.5770646764       -1.5628830518        0.1355979934
 H          2.9474083739       -1.3989824131        0.6947438373
 C         -1.8771918629        2.6010735099       -4.4974006478
 O         -1.5557635952        2.1181923264       -3.4207681308
 N         -1.8112463710        3.9315808954       -4.7419767323
 H         -1.4130610067        4.5332983655       -4.0439237113
 H         -1.9946749910        4.3172210152       -5.6498207152
 N         -2.3200267558        1.8396385536       -5.5271471778
 H         -2.6780317160        2.2437055653       -6.3728938323
 H         -2.4767740349        0.8609079541       -5.3674603392
 C         -1.9450538911       -2.7778296948        1.1868656147
 O         -1.9168540267       -1.9167394471        2.0691849279
 N         -0.8401371251       -3.1101165800        0.4873731315
 H          0.0661386405       -2.7931473923        0.8486013707
 H         -0.8411475824       -3.9216190467       -0.1050724941
 N         -3.1103042255       -3.3521989067        0.8084167002
 H         -3.1392073358       -4.1352143008        0.1808843572
 H         -3.9324006024       -3.1499549766        1.3503706719
 C          1.5579446268       -1.9146466879        2.8440316448
 O          1.5206411018       -2.1022077417        1.6222739901
 N          2.7367962733       -1.7913093833        3.4948463750
 H          3.5880739980       -1.7959120045        2.9622974618
 H          2.7852918757       -1.5946140541        4.4773452244
 N          0.4431112465       -1.8183977087        3.5823897156
 H          0.4777308448       -1.7130763892        4.5794573596
 H         -0.4663554854       -1.8893636694        3.1261809937
