53
 xtb: 6.6.1 (unknown-commit)
O           -2.13752249344320        0.90301686435848        2.38335974394133
C           -0.79360570754197        1.24443262566879        2.18446261381256
H           -0.75593238036994        2.33704590196132        2.11990281321278
H           -0.18096788718775        0.94793101231098        3.05026320243477
C           -0.16176934451325        0.57717775599030        0.95840679817951
H           -0.38647243004511       -0.48718682770957        1.01591918543404
H            0.92447067801190        0.70548197354250        0.98197724309543
N           -0.62179052572761        1.06456387306872       -0.36750940621932
C           -2.08477918012455        1.00731432716222       -0.49990095642403
H           -2.42852715812865       -0.01059285008093       -0.35257706575716
H           -2.35566955485212        1.35298451909119       -1.49518002918058
H           -2.55714653082409        1.64107166530972        0.25230329868411
C           -0.01919243291021        0.20458615728227       -1.40018017072015
H           -0.34287369132527       -0.82599812289891       -1.25992605266298
H            1.06198674673898        0.25868434893555       -1.31456016869629
H           -0.33699022568650        0.56081219004218       -2.37882217501329
C           -0.15811431727597        2.43994892340979       -0.60649126703301
H            0.92941119901583        2.46522772422980       -0.51311158349296
H           -0.60265765097657        3.12466088566980        0.10770422658474
H           -0.44933879864303        2.72932843529698       -1.61509222731428
H           -2.20881856115037       -0.05799329369183        2.44566322866125
C            3.73888492826818        0.29095797439290       -0.15221335048774
O            2.72065719737468        0.97055053290314       -0.10074948137421
N            4.86864598985289        0.74604405775265       -0.75599035497024
H            4.89580080806010        1.70475549141455       -1.03439052439978
H            5.74350557737466        0.25592255531135       -0.67013038942235
N            3.81245014975723       -0.95018889740268        0.38261462460477
H            4.57811063571765       -1.55996411962125        0.13793379103663
H            2.94802561785176       -1.39699033273101        0.69607333312881
C           -1.87933835088575        2.60194059099806       -4.49797475208316
O           -1.55388435528456        2.11976699052927       -3.42245994591661
N           -1.66625901038971        3.91568482746944       -4.79548088044804
H           -1.34026857267491        4.52229007300966       -4.07175327071075
H           -1.95443414471950        4.30922664701773       -5.66605901520173
N           -2.47609938826323        1.85647139795154       -5.47355335783512
H           -2.72199972909647        2.25189921728174       -6.35589952856845
H           -2.55018436842093        0.87256453788661       -5.34006328684290
C           -1.93944140654079       -2.78379585312962        1.18093610733470
O           -1.91496133687688       -1.92434431869336        2.06318366738721
N           -0.83160808489598       -3.11322472800899        0.48339243550339
H            0.06797201021137       -2.79337727554791        0.84812034193072
H           -0.83794795038478       -3.92222393493297       -0.10644112775966
N           -3.10202216742479       -3.36101402172282        0.79848890726378
H           -3.13597014344644       -4.13771181654248        0.17836204131452
H           -3.93057932172096       -3.15318993075706        1.34746601099619
C            1.55776633281608       -1.91328332257126        2.84625991942755
O            1.52374606270574       -2.09929185092920        1.62453756131679
N            2.73488641267358       -1.78776438914792        3.49995304342575
H            3.58788392437474       -1.79437230266679        2.96417172011846
H            2.78409191986283       -1.59398427002258        4.47880731126618
N            0.44105889456892       -1.82021607207906        3.58242212663732
H            0.47651955374993       -1.71388737784913        4.57952517492230
H           -0.46658052022478       -1.89037722602256        3.12562759455519
