 xtb: 6.6.1 (unknown-commit)
          01102415373D

 53 48  0     0  0            999 V2000
   -3.2680   -0.9922    1.4190 O   0  0  0  0  0  0  0  0  0  0  0  0
   -1.9907   -0.8756    1.9755 C   0  0  0  0  0  0  0  0  0  0  0  0
   -1.9032    0.1428    2.3621 H   0  0  0  0  0  0  0  0  0  0  0  0
   -1.8820   -1.5631    2.8288 H   0  0  0  0  0  0  0  0  0  0  0  0
   -0.8559   -1.2207    1.0053 C   0  0  0  0  0  0  0  0  0  0  0  0
   -1.0511   -2.2221    0.6135 H   0  0  0  0  0  0  0  0  0  0  0  0
    0.0852   -1.2188    1.5613 H   0  0  0  0  0  0  0  0  0  0  0  0
   -0.6833   -0.3116   -0.1587 N   0  0  0  0  0  0  0  0  0  0  0  0
    0.4242   -0.8322   -0.9776 C   0  0  0  0  0  0  0  0  0  0  0  0
    1.3252   -0.9025   -0.3730 H   0  0  0  0  0  0  0  0  0  0  0  0
    0.5967   -0.1453   -1.8060 H   0  0  0  0  0  0  0  0  0  0  0  0
    0.1677   -1.8158   -1.3650 H   0  0  0  0  0  0  0  0  0  0  0  0
   -0.3318    1.0467    0.2794 C   0  0  0  0  0  0  0  0  0  0  0  0
   -1.1615    1.5015    0.8129 H   0  0  0  0  0  0  0  0  0  0  0  0
   -0.0998    1.6422   -0.6025 H   0  0  0  0  0  0  0  0  0  0  0  0
    0.5426    1.0045    0.9223 H   0  0  0  0  0  0  0  0  0  0  0  0
   -1.8876   -0.2483   -1.0022 C   0  0  0  0  0  0  0  0  0  0  0  0
   -2.7087    0.2027   -0.4500 H   0  0  0  0  0  0  0  0  0  0  0  0
   -2.1831   -1.2527   -1.3009 H   0  0  0  0  0  0  0  0  0  0  0  0
   -1.6609    0.3531   -1.8809 H   0  0  0  0  0  0  0  0  0  0  0  0
   -3.2714   -1.8146    0.8743 H   0  0  0  0  0  0  0  0  0  0  0  0
    3.5558    1.1269   -0.5566 C   0  0  0  0  0  0  0  0  0  0  0  0
    2.8279    2.0442   -0.1677 O   0  0  0  0  0  0  0  0  0  0  0  0
    3.5992   -0.0611    0.0730 N   0  0  0  0  0  0  0  0  0  0  0  0
    3.0693   -0.1715    0.9409 H   0  0  0  0  0  0  0  0  0  0  0  0
    4.2917   -0.7489   -0.1609 H   0  0  0  0  0  0  0  0  0  0  0  0
    4.3350    1.2654   -1.6537 N   0  0  0  0  0  0  0  0  0  0  0  0
    4.8657    0.5012   -2.0291 H   0  0  0  0  0  0  0  0  0  0  0  0
    4.2487    2.1022   -2.2025 H   0  0  0  0  0  0  0  0  0  0  0  0
    0.6678    2.8356   -3.0392 C   0  0  0  0  0  0  0  0  0  0  0  0
    0.1853    1.7697   -2.6755 O   0  0  0  0  0  0  0  0  0  0  0  0
    1.7410    3.3917   -2.4305 N   0  0  0  0  0  0  0  0  0  0  0  0
    2.0576    2.9937   -1.5473 H   0  0  0  0  0  0  0  0  0  0  0  0
    1.9890    4.3460   -2.6228 H   0  0  0  0  0  0  0  0  0  0  0  0
    0.1544    3.5276   -4.0889 N   0  0  0  0  0  0  0  0  0  0  0  0
    0.6227    4.3263   -4.4765 H   0  0  0  0  0  0  0  0  0  0  0  0
   -0.5531    3.0825   -4.6461 H   0  0  0  0  0  0  0  0  0  0  0  0
   -4.1534   -3.8780   -0.1127 C   0  0  0  0  0  0  0  0  0  0  0  0
   -3.1305   -3.1969   -0.1530 O   0  0  0  0  0  0  0  0  0  0  0  0
   -5.2185   -3.5255    0.6390 N   0  0  0  0  0  0  0  0  0  0  0  0
   -5.1958   -2.6549    1.1427 H   0  0  0  0  0  0  0  0  0  0  0  0
   -6.0719   -4.0530    0.6354 H   0  0  0  0  0  0  0  0  0  0  0  0
   -4.2732   -5.0221   -0.8199 N   0  0  0  0  0  0  0  0  0  0  0  0
   -5.0817   -5.6124   -0.7544 H   0  0  0  0  0  0  0  0  0  0  0  0
   -3.4845   -5.3461   -1.3501 H   0  0  0  0  0  0  0  0  0  0  0  0
    2.1078    0.7549    3.0823 C   0  0  0  0  0  0  0  0  0  0  0  0
    1.9358   -0.1974    2.3153 O   0  0  0  0  0  0  0  0  0  0  0  0
    1.9442    0.6158    4.4188 N   0  0  0  0  0  0  0  0  0  0  0  0
    1.7960   -0.3071    4.7865 H   0  0  0  0  0  0  0  0  0  0  0  0
    2.1742    1.3514    5.0615 H   0  0  0  0  0  0  0  0  0  0  0  0
    2.4100    1.9822    2.6275 N   0  0  0  0  0  0  0  0  0  0  0  0
    2.5854    2.7479    3.2513 H   0  0  0  0  0  0  0  0  0  0  0  0
    2.5497    2.1203    1.6250 H   0  0  0  0  0  0  0  0  0  0  0  0
  1  2  1  0  0  0  0
  2  3  1  0  0  0  0
  2  4  1  0  0  0  0
  2  5  1  0  0  0  0
  5  6  1  0  0  0  0
  5  7  1  0  0  0  0
  5  8  1  0  0  0  0
  8  9  1  0  0  0  0
  9 10  1  0  0  0  0
  9 11  1  0  0  0  0
  9 12  1  0  0  0  0
  8 13  1  0  0  0  0
 13 14  1  0  0  0  0
 13 15  1  0  0  0  0
 13 16  1  0  0  0  0
  8 17  1  0  0  0  0
 17 18  1  0  0  0  0
 17 19  1  0  0  0  0
 17 20  1  0  0  0  0
  1 21  1  0  0  0  0
 22 23  4  0  0  0  0
 22 24  4  0  0  0  0
 24 25  1  0  0  0  0
 24 26  1  0  0  0  0
 22 27  4  0  0  0  0
 27 28  1  0  0  0  0
 27 29  1  0  0  0  0
 30 31  2  0  0  0  0
 30 32  4  0  0  0  0
 32 33  1  0  0  0  0
 32 34  1  0  0  0  0
 30 35  1  0  0  0  0
 35 36  1  0  0  0  0
 35 37  1  0  0  0  0
 38 39  2  0  0  0  0
 38 40  4  0  0  0  0
 40 41  1  0  0  0  0
 40 42  1  0  0  0  0
 38 43  4  0  0  0  0
 43 44  1  0  0  0  0
 43 45  1  0  0  0  0
 46 47  4  0  0  0  0
 46 48  4  0  0  0  0
 48 49  1  0  0  0  0
 48 50  1  0  0  0  0
 46 51  4  0  0  0  0
 51 52  1  0  0  0  0
 51 53  1  0  0  0  0
M  CHG  1   1   1
M  END
