 xtb: 6.6.1 (unknown-commit)
          01102415363D

 53 48  0     0  0            999 V2000
   -2.8080   -0.5675    0.4882 O   0  0  0  0  0  0  0  0  0  0  0  0
   -2.8352    0.7092    1.0513 C   0  0  0  0  0  0  0  0  0  0  0  0
   -3.7639    1.1772    0.7129 H   0  0  0  0  0  0  0  0  0  0  0  0
   -2.8747    0.6536    2.1492 H   0  0  0  0  0  0  0  0  0  0  0  0
   -1.6200    1.5885    0.7149 C   0  0  0  0  0  0  0  0  0  0  0  0
   -0.7096    1.1357    1.1188 H   0  0  0  0  0  0  0  0  0  0  0  0
   -1.7747    2.5552    1.1983 H   0  0  0  0  0  0  0  0  0  0  0  0
   -1.3606    1.8272   -0.7299 N   0  0  0  0  0  0  0  0  0  0  0  0
   -0.8222    0.6111   -1.3650 C   0  0  0  0  0  0  0  0  0  0  0  0
    0.0987    0.3332   -0.8554 H   0  0  0  0  0  0  0  0  0  0  0  0
   -0.6186    0.8296   -2.4114 H   0  0  0  0  0  0  0  0  0  0  0  0
   -1.5456   -0.1967   -1.2863 H   0  0  0  0  0  0  0  0  0  0  0  0
   -0.3351    2.8789   -0.8459 C   0  0  0  0  0  0  0  0  0  0  0  0
   -0.1132    3.0295   -1.9011 H   0  0  0  0  0  0  0  0  0  0  0  0
    0.5613    2.5555   -0.3188 H   0  0  0  0  0  0  0  0  0  0  0  0
   -0.6971    3.8109   -0.4171 H   0  0  0  0  0  0  0  0  0  0  0  0
   -2.5690    2.2502   -1.4519 C   0  0  0  0  0  0  0  0  0  0  0  0
   -3.2920    1.4386   -1.4766 H   0  0  0  0  0  0  0  0  0  0  0  0
   -2.2829    2.5040   -2.4726 H   0  0  0  0  0  0  0  0  0  0  0  0
   -3.0117    3.1197   -0.9697 H   0  0  0  0  0  0  0  0  0  0  0  0
   -2.0316   -1.0557    0.8609 H   0  0  0  0  0  0  0  0  0  0  0  0
    1.9668    0.4959    1.8703 C   0  0  0  0  0  0  0  0  0  0  0  0
    1.4354    0.9300    0.8525 O   0  0  0  0  0  0  0  0  0  0  0  0
    1.2822   -0.2201    2.7959 N   0  0  0  0  0  0  0  0  0  0  0  0
    0.4343   -0.6704    2.4651 H   0  0  0  0  0  0  0  0  0  0  0  0
    1.8064   -0.7720    3.4566 H   0  0  0  0  0  0  0  0  0  0  0  0
    3.2715    0.7378    2.1515 N   0  0  0  0  0  0  0  0  0  0  0  0
    3.6673    0.4807    3.0375 H   0  0  0  0  0  0  0  0  0  0  0  0
    3.7679    1.4041    1.5869 H   0  0  0  0  0  0  0  0  0  0  0  0
   -0.5109    2.8374   -5.1209 C   0  0  0  0  0  0  0  0  0  0  0  0
   -0.7335    2.5420   -3.9548 O   0  0  0  0  0  0  0  0  0  0  0  0
   -1.5029    2.9860   -6.0311 N   0  0  0  0  0  0  0  0  0  0  0  0
   -2.4416    2.7494   -5.7641 H   0  0  0  0  0  0  0  0  0  0  0  0
   -1.3130    3.1298   -7.0059 H   0  0  0  0  0  0  0  0  0  0  0  0
    0.7453    3.0380   -5.5869 N   0  0  0  0  0  0  0  0  0  0  0  0
    0.9203    3.3824   -6.5130 H   0  0  0  0  0  0  0  0  0  0  0  0
    1.5060    3.0379   -4.9314 H   0  0  0  0  0  0  0  0  0  0  0  0
   -1.1468   -2.8266    2.3730 C   0  0  0  0  0  0  0  0  0  0  0  0
   -0.7844   -1.8864    1.6394 O   0  0  0  0  0  0  0  0  0  0  0  0
   -2.4544   -3.1440    2.4757 N   0  0  0  0  0  0  0  0  0  0  0  0
   -3.1211   -2.6558    1.9014 H   0  0  0  0  0  0  0  0  0  0  0  0
   -2.7691   -3.9272    3.0183 H   0  0  0  0  0  0  0  0  0  0  0  0
   -0.2670   -3.5189    3.0955 N   0  0  0  0  0  0  0  0  0  0  0  0
   -0.5506   -4.2923    3.6687 H   0  0  0  0  0  0  0  0  0  0  0  0
    0.7364   -3.3145    2.9960 H   0  0  0  0  0  0  0  0  0  0  0  0
    2.7126   -2.7345    1.4426 C   0  0  0  0  0  0  0  0  0  0  0  0
    2.3886   -2.9193    2.6128 O   0  0  0  0  0  0  0  0  0  0  0  0
    1.8105   -2.4518    0.4785 N   0  0  0  0  0  0  0  0  0  0  0  0
    0.8626   -2.2259    0.7652 H   0  0  0  0  0  0  0  0  0  0  0  0
    2.1099   -2.1479   -0.4300 H   0  0  0  0  0  0  0  0  0  0  0  0
    4.0134   -2.7899    1.0547 N   0  0  0  0  0  0  0  0  0  0  0  0
    4.2630   -2.8234    0.0825 H   0  0  0  0  0  0  0  0  0  0  0  0
    4.6722   -3.1667    1.7144 H   0  0  0  0  0  0  0  0  0  0  0  0
  1  2  1  0  0  0  0
  2  3  1  0  0  0  0
  2  4  1  0  0  0  0
  2  5  1  0  0  0  0
  5  6  1  0  0  0  0
  5  7  1  0  0  0  0
  5  8  1  0  0  0  0
  8  9  1  0  0  0  0
  9 10  1  0  0  0  0
  9 11  1  0  0  0  0
  9 12  1  0  0  0  0
  8 13  1  0  0  0  0
 13 14  1  0  0  0  0
 13 15  1  0  0  0  0
 13 16  1  0  0  0  0
  8 17  1  0  0  0  0
 17 18  1  0  0  0  0
 17 19  1  0  0  0  0
 17 20  1  0  0  0  0
  1 21  1  0  0  0  0
 22 23  2  0  0  0  0
 22 24  4  0  0  0  0
 24 25  1  0  0  0  0
 24 26  1  0  0  0  0
 22 27  4  0  0  0  0
 27 28  1  0  0  0  0
 27 29  1  0  0  0  0
 30 31  2  0  0  0  0
 30 32  4  0  0  0  0
 32 33  1  0  0  0  0
 32 34  1  0  0  0  0
 30 35  4  0  0  0  0
 35 36  1  0  0  0  0
 35 37  1  0  0  0  0
 38 39  4  0  0  0  0
 38 40  4  0  0  0  0
 40 41  1  0  0  0  0
 40 42  1  0  0  0  0
 38 43  4  0  0  0  0
 43 44  1  0  0  0  0
 43 45  1  0  0  0  0
 46 47  2  0  0  0  0
 46 48  4  0  0  0  0
 48 49  1  0  0  0  0
 48 50  1  0  0  0  0
 46 51  1  0  0  0  0
 51 52  1  0  0  0  0
 51 53  1  0  0  0  0
M  CHG  1   1   1
M  END
