 xtb: 6.6.1 (unknown-commit)
          01102418293D

 53 48  0     0  0            999 V2000
   -0.7733    1.0470   -1.5000 O   0  0  0  0  0  0  0  0  0  0  0  0
   -0.9435    0.1318   -2.5378 C   0  0  0  0  0  0  0  0  0  0  0  0
   -1.8501    0.4298   -3.0731 H   0  0  0  0  0  0  0  0  0  0  0  0
   -0.1069    0.1863   -3.2496 H   0  0  0  0  0  0  0  0  0  0  0  0
   -1.0250   -1.3357   -2.0883 C   0  0  0  0  0  0  0  0  0  0  0  0
   -0.0856   -1.6276   -1.6095 H   0  0  0  0  0  0  0  0  0  0  0  0
   -1.1693   -1.9453   -2.9825 H   0  0  0  0  0  0  0  0  0  0  0  0
   -2.1054   -1.6665   -1.1210 N   0  0  0  0  0  0  0  0  0  0  0  0
   -1.7803   -1.1376    0.2158 C   0  0  0  0  0  0  0  0  0  0  0  0
   -2.5751   -1.4210    0.9025 H   0  0  0  0  0  0  0  0  0  0  0  0
   -1.6928   -0.0549    0.1715 H   0  0  0  0  0  0  0  0  0  0  0  0
   -0.8340   -1.5674    0.5402 H   0  0  0  0  0  0  0  0  0  0  0  0
   -2.1922   -3.1330   -1.0118 C   0  0  0  0  0  0  0  0  0  0  0  0
   -2.9538   -3.3803   -0.2742 H   0  0  0  0  0  0  0  0  0  0  0  0
   -1.2246   -3.5184   -0.6946 H   0  0  0  0  0  0  0  0  0  0  0  0
   -2.4647   -3.5688   -1.9708 H   0  0  0  0  0  0  0  0  0  0  0  0
   -3.4112   -1.1378   -1.5396 C   0  0  0  0  0  0  0  0  0  0  0  0
   -3.6495   -1.4751   -2.5467 H   0  0  0  0  0  0  0  0  0  0  0  0
   -3.3996   -0.0511   -1.5117 H   0  0  0  0  0  0  0  0  0  0  0  0
   -4.1655   -1.5038   -0.8433 H   0  0  0  0  0  0  0  0  0  0  0  0
    0.1022    0.8620   -1.0680 H   0  0  0  0  0  0  0  0  0  0  0  0
    1.9971   -2.9835    0.0077 C   0  0  0  0  0  0  0  0  0  0  0  0
    0.7835   -2.9508   -0.1591 O   0  0  0  0  0  0  0  0  0  0  0  0
    2.7424   -1.8673    0.1357 N   0  0  0  0  0  0  0  0  0  0  0  0
    2.3069   -0.9627   -0.0516 H   0  0  0  0  0  0  0  0  0  0  0  0
    3.7445   -1.9260    0.1093 H   0  0  0  0  0  0  0  0  0  0  0  0
    2.6730   -4.1646    0.0673 N   0  0  0  0  0  0  0  0  0  0  0  0
    3.6291   -4.2048    0.3709 H   0  0  0  0  0  0  0  0  0  0  0  0
    2.1327   -5.0095    0.1268 H   0  0  0  0  0  0  0  0  0  0  0  0
    4.1302    5.8326    0.6562 C   0  0  0  0  0  0  0  0  0  0  0  0
    3.5952    4.7449    0.4905 O   0  0  0  0  0  0  0  0  0  0  0  0
    3.4158    6.9803    0.7511 N   0  0  0  0  0  0  0  0  0  0  0  0
    2.4153    6.9133    0.8123 H   0  0  0  0  0  0  0  0  0  0  0  0
    3.8444    7.8496    1.0121 H   0  0  0  0  0  0  0  0  0  0  0  0
    5.4749    5.9683    0.7552 N   0  0  0  0  0  0  0  0  0  0  0  0
    5.9157    6.8700    0.7655 H   0  0  0  0  0  0  0  0  0  0  0  0
    6.0497    5.1675    0.5620 H   0  0  0  0  0  0  0  0  0  0  0  0
    2.1729    1.7601   -0.1979 C   0  0  0  0  0  0  0  0  0  0  0  0
    1.6231    0.6651   -0.3971 O   0  0  0  0  0  0  0  0  0  0  0  0
    1.6286    2.9186   -0.6000 N   0  0  0  0  0  0  0  0  0  0  0  0
    0.7329    2.9190   -1.0562 H   0  0  0  0  0  0  0  0  0  0  0  0
    2.1001    3.7833   -0.3794 H   0  0  0  0  0  0  0  0  0  0  0  0
    3.3735    1.8655    0.4019 N   0  0  0  0  0  0  0  0  0  0  0  0
    3.7266    2.7894    0.6079 H   0  0  0  0  0  0  0  0  0  0  0  0
    3.7826    1.0610    0.8404 H   0  0  0  0  0  0  0  0  0  0  0  0
   -5.3840   -2.9604    1.8161 C   0  0  0  0  0  0  0  0  0  0  0  0
   -4.5706   -2.5818    0.9857 O   0  0  0  0  0  0  0  0  0  0  0  0
   -5.0418   -3.7812    2.8388 N   0  0  0  0  0  0  0  0  0  0  0  0
   -4.1118   -4.1590    2.8598 H   0  0  0  0  0  0  0  0  0  0  0  0
   -5.7262   -4.1740    3.4585 H   0  0  0  0  0  0  0  0  0  0  0  0
   -6.6864   -2.5893    1.7749 N   0  0  0  0  0  0  0  0  0  0  0  0
   -7.3285   -2.8170    2.5115 H   0  0  0  0  0  0  0  0  0  0  0  0
   -6.9694   -1.9059    1.0960 H   0  0  0  0  0  0  0  0  0  0  0  0
  1  2  1  0  0  0  0
  2  3  1  0  0  0  0
  2  4  1  0  0  0  0
  2  5  1  0  0  0  0
  5  6  1  0  0  0  0
  5  7  1  0  0  0  0
  5  8  1  0  0  0  0
  8  9  1  0  0  0  0
  9 10  1  0  0  0  0
  9 11  1  0  0  0  0
  9 12  1  0  0  0  0
  8 13  1  0  0  0  0
 13 14  1  0  0  0  0
 13 15  1  0  0  0  0
 13 16  1  0  0  0  0
  8 17  1  0  0  0  0
 17 18  1  0  0  0  0
 17 19  1  0  0  0  0
 17 20  1  0  0  0  0
  1 21  1  0  0  0  0
 22 23  2  0  0  0  0
 22 24  4  0  0  0  0
 24 25  1  0  0  0  0
 24 26  1  0  0  0  0
 22 27  1  0  0  0  0
 27 28  1  0  0  0  0
 27 29  1  0  0  0  0
 30 31  2  0  0  0  0
 30 32  4  0  0  0  0
 32 33  1  0  0  0  0
 32 34  1  0  0  0  0
 30 35  4  0  0  0  0
 35 36  1  0  0  0  0
 35 37  1  0  0  0  0
 38 39  4  0  0  0  0
 38 40  4  0  0  0  0
 40 41  1  0  0  0  0
 40 42  1  0  0  0  0
 38 43  4  0  0  0  0
 43 44  1  0  0  0  0
 43 45  1  0  0  0  0
 46 47  2  0  0  0  0
 46 48  4  0  0  0  0
 48 49  1  0  0  0  0
 48 50  1  0  0  0  0
 46 51  4  0  0  0  0
 51 52  1  0  0  0  0
 51 53  1  0  0  0  0
M  CHG  1   1   1
M  END
