 xtb: 6.6.1 (unknown-commit)
          01102418233D

 53 48  0     0  0            999 V2000
   -2.2290   -1.1852    1.1339 O   0  0  0  0  0  0  0  0  0  0  0  0
   -1.3864   -1.6654    0.1160 C   0  0  0  0  0  0  0  0  0  0  0  0
   -1.5151   -2.7502    0.0823 H   0  0  0  0  0  0  0  0  0  0  0  0
   -1.6972   -1.2670   -0.8559 H   0  0  0  0  0  0  0  0  0  0  0  0
    0.0889   -1.2861    0.2887 C   0  0  0  0  0  0  0  0  0  0  0  0
    0.1633   -0.2188    0.4933 H   0  0  0  0  0  0  0  0  0  0  0  0
    0.6164   -1.5138   -0.6432 H   0  0  0  0  0  0  0  0  0  0  0  0
    0.8336   -1.9738    1.3786 N   0  0  0  0  0  0  0  0  0  0  0  0
    0.2889   -1.5822    2.6874 C   0  0  0  0  0  0  0  0  0  0  0  0
    0.7974   -2.1235    3.4827 H   0  0  0  0  0  0  0  0  0  0  0  0
   -0.7782   -1.7923    2.7234 H   0  0  0  0  0  0  0  0  0  0  0  0
    0.4421   -0.5125    2.8264 H   0  0  0  0  0  0  0  0  0  0  0  0
    2.2375   -1.5338    1.2882 C   0  0  0  0  0  0  0  0  0  0  0  0
    2.2803   -0.4537    1.4165 H   0  0  0  0  0  0  0  0  0  0  0  0
    2.6306   -1.7995    0.3079 H   0  0  0  0  0  0  0  0  0  0  0  0
    2.8291   -2.0119    2.0657 H   0  0  0  0  0  0  0  0  0  0  0  0
    0.7943   -3.4324    1.2042 C   0  0  0  0  0  0  0  0  0  0  0  0
    1.1167   -3.6717    0.1916 H   0  0  0  0  0  0  0  0  0  0  0  0
   -0.2095   -3.8136    1.3740 H   0  0  0  0  0  0  0  0  0  0  0  0
    1.4681   -3.9073    1.9150 H   0  0  0  0  0  0  0  0  0  0  0  0
   -2.4838   -0.2616    0.9200 H   0  0  0  0  0  0  0  0  0  0  0  0
   -0.3896    1.5851   -1.2274 C   0  0  0  0  0  0  0  0  0  0  0  0
    0.7586    1.4458   -1.6637 O   0  0  0  0  0  0  0  0  0  0  0  0
   -1.4755    1.2965   -1.9824 N   0  0  0  0  0  0  0  0  0  0  0  0
   -1.3650    1.1575   -2.9705 H   0  0  0  0  0  0  0  0  0  0  0  0
   -2.3948    1.4487   -1.6028 H   0  0  0  0  0  0  0  0  0  0  0  0
   -0.6462    2.0030    0.0242 N   0  0  0  0  0  0  0  0  0  0  0  0
   -1.5976    1.9890    0.3561 H   0  0  0  0  0  0  0  0  0  0  0  0
    0.1074    1.9997    0.7070 H   0  0  0  0  0  0  0  0  0  0  0  0
    2.5193    2.2125    1.3432 C   0  0  0  0  0  0  0  0  0  0  0  0
    1.5763    1.5174    1.7355 O   0  0  0  0  0  0  0  0  0  0  0  0
    3.4189    2.7270    2.2188 N   0  0  0  0  0  0  0  0  0  0  0  0
    3.2211    2.6519    3.2008 H   0  0  0  0  0  0  0  0  0  0  0  0
    4.1153    3.3893    1.9292 H   0  0  0  0  0  0  0  0  0  0  0  0
    2.7346    2.4421    0.0407 N   0  0  0  0  0  0  0  0  0  0  0  0
    3.4843    3.0305   -0.2722 H   0  0  0  0  0  0  0  0  0  0  0  0
    2.0669    2.0789   -0.6468 H   0  0  0  0  0  0  0  0  0  0  0  0
    2.4046   -1.8087   -2.8151 C   0  0  0  0  0  0  0  0  0  0  0  0
    2.0742   -2.2761   -1.7287 O   0  0  0  0  0  0  0  0  0  0  0  0
    3.2044   -2.5049   -3.6646 N   0  0  0  0  0  0  0  0  0  0  0  0
    3.4131   -3.4613   -3.4392 H   0  0  0  0  0  0  0  0  0  0  0  0
    3.3709   -2.1979   -4.6056 H   0  0  0  0  0  0  0  0  0  0  0  0
    2.0030   -0.5953   -3.2449 N   0  0  0  0  0  0  0  0  0  0  0  0
    2.3984   -0.2038   -4.0810 H   0  0  0  0  0  0  0  0  0  0  0  0
    1.5467    0.0563   -2.6117 H   0  0  0  0  0  0  0  0  0  0  0  0
   -4.5811    1.0855    0.7284 C   0  0  0  0  0  0  0  0  0  0  0  0
   -3.4040    1.1684    0.3705 O   0  0  0  0  0  0  0  0  0  0  0  0
   -5.4473    2.1045    0.5489 N   0  0  0  0  0  0  0  0  0  0  0  0
   -5.1085    2.9705    0.1693 H   0  0  0  0  0  0  0  0  0  0  0  0
   -6.3949    2.0664    0.8766 H   0  0  0  0  0  0  0  0  0  0  0  0
   -5.0698   -0.0317    1.2998 N   0  0  0  0  0  0  0  0  0  0  0  0
   -6.0255   -0.1100    1.5945 H   0  0  0  0  0  0  0  0  0  0  0  0
   -4.4492   -0.8130    1.4390 H   0  0  0  0  0  0  0  0  0  0  0  0
  1  2  1  0  0  0  0
  2  3  1  0  0  0  0
  2  4  1  0  0  0  0
  2  5  1  0  0  0  0
  5  6  1  0  0  0  0
  5  7  1  0  0  0  0
  5  8  1  0  0  0  0
  8  9  1  0  0  0  0
  9 10  1  0  0  0  0
  9 11  1  0  0  0  0
  9 12  1  0  0  0  0
  8 13  1  0  0  0  0
 13 14  1  0  0  0  0
 13 15  1  0  0  0  0
 13 16  1  0  0  0  0
  8 17  1  0  0  0  0
 17 18  1  0  0  0  0
 17 19  1  0  0  0  0
 17 20  1  0  0  0  0
  1 21  1  0  0  0  0
 22 23  4  0  0  0  0
 22 24  4  0  0  0  0
 24 25  1  0  0  0  0
 24 26  1  0  0  0  0
 22 27  4  0  0  0  0
 27 28  1  0  0  0  0
 27 29  1  0  0  0  0
 30 31  4  0  0  0  0
 30 32  4  0  0  0  0
 32 33  1  0  0  0  0
 32 34  1  0  0  0  0
 30 35  4  0  0  0  0
 35 36  1  0  0  0  0
 35 37  1  0  0  0  0
 38 39  2  0  0  0  0
 38 40  1  0  0  0  0
 40 41  1  0  0  0  0
 40 42  1  0  0  0  0
 38 43  4  0  0  0  0
 43 44  1  0  0  0  0
 43 45  1  0  0  0  0
 46 47  4  0  0  0  0
 46 48  4  0  0  0  0
 48 49  1  0  0  0  0
 48 50  1  0  0  0  0
 46 51  4  0  0  0  0
 51 52  1  0  0  0  0
 51 53  1  0  0  0  0
M  CHG  1   1   1
M  END
