  53

 O          1.0806143445       -1.9413102424        2.1050945329
 C          0.0418364454       -2.4940149574        2.8558022124
 H          0.3294173759       -3.5200958757        3.1004235377
 H         -0.0725711383       -1.9445022446        3.7987133217
 C         -1.3246899451       -2.4246616781        2.1545298457
 H         -1.4336546277       -1.4160525052        1.7437286292
 H         -2.1048069324       -2.5946799390        2.8979943834
 N         -1.5474163799       -3.3818132958        1.0336973860
 C         -0.5979392932       -3.1083245797       -0.0578590440
 H         -0.7571554105       -3.8085852124       -0.8745790838
 H          0.4240843204       -3.1881874657        0.2999665381
 H         -0.7671380492       -2.0902613926       -0.4141691877
 C         -2.9146300678       -3.1683359746        0.5249473939
 H         -3.1084498618       -3.8389958495       -0.3096123338
 H         -3.0029525533       -2.1383556170        0.1785501713
 H         -3.6452201920       -3.3564315409        1.3088125804
 C         -1.4105316561       -4.7762292624        1.4802110177
 H         -2.0428381140       -4.9590992968        2.3476596528
 H         -0.3775321094       -4.9941866360        1.7405192640
 H         -1.7106333498       -5.4495907500        0.6789553578
 H          0.8632306441       -0.9728811611        2.0187546525
 C          2.7144849798       -1.7091920580       -1.0877633387
 O          1.6942837273       -1.0340603123       -1.1762413291
 N          3.0153640987       -2.4197655439        0.0237390321
 H          2.4674128675       -2.2378111151        0.8574002501
 H          3.9367563153       -2.7998172034        0.1490949073
 N          3.5937640417       -1.8059033028       -2.1151672258
 H          4.3749675470       -2.4352596132       -2.0910751440
 H          3.3487542431       -1.3870417397       -2.9943964496
 C          0.1380062939        4.7627913105       -1.7584819160
 O         -0.1346672312        3.6885060369       -1.2278134390
 N          1.0862003047        5.5843317046       -1.2587183832
 H          1.5991918233        5.3019389655       -0.4424898117
 H          1.3285986872        6.4538692938       -1.6965231528
 N         -0.4928823879        5.1878721668       -2.8738467437
 H         -0.2936043095        6.0741563683       -3.2996483555
 H         -1.2219339085        4.6214928276       -3.2697201190
 C          0.3304909219        1.4400110718        1.3596845128
 O          0.0965008593        0.4930823664        2.1080688288
 N          1.2138197728        1.3738709961        0.3384671519
 H          1.4648660558        0.4601819277       -0.0244833450
 H          1.1952112056        2.1269228959       -0.3305948432
 N         -0.2195343233        2.6636675046        1.5606914962
 H         -0.2282725517        3.3211634108        0.7963865352
 H         -0.9126866625        2.7518057083        2.2825125687
 C         -1.6810957635        0.5981563904       -0.9060143720
 O         -2.0161765425       -0.4344707769       -0.3335701720
 N         -2.3498742312        1.7683851992       -0.7411268271
 H         -3.0521098555        1.8044291608       -0.0231758699
 H         -1.8827886336        2.6264205959       -0.9911692388
 N         -0.6835242905        0.6395287923       -1.8215454133
 H         -0.3446729360        1.5482343869       -2.0923101116
 H         -0.0039367359       -0.1082423470       -1.8194481969
