 xtb: 6.6.1 (unknown-commit)
          01102418333D

 53 48  0     0  0            999 V2000
    3.0718   -0.1429   -0.1356 O   0  0  0  0  0  0  0  0  0  0  0  0
    3.0097    1.1944   -0.5280 C   0  0  0  0  0  0  0  0  0  0  0  0
    3.8654    1.6957   -0.0666 H   0  0  0  0  0  0  0  0  0  0  0  0
    3.1187    1.2895   -1.6177 H   0  0  0  0  0  0  0  0  0  0  0  0
    1.6962    1.9102   -0.1676 C   0  0  0  0  0  0  0  0  0  0  0  0
    0.8620    1.4455   -0.6998 H   0  0  0  0  0  0  0  0  0  0  0  0
    1.7891    2.9464   -0.4990 H   0  0  0  0  0  0  0  0  0  0  0  0
    1.3283    1.9134    1.2736 N   0  0  0  0  0  0  0  0  0  0  0  0
    0.8398    0.5846    1.6828 C   0  0  0  0  0  0  0  0  0  0  0  0
   -0.0346    0.3330    1.0851 H   0  0  0  0  0  0  0  0  0  0  0  0
    0.5704    0.6249    2.7363 H   0  0  0  0  0  0  0  0  0  0  0  0
    1.6183   -0.1575    1.5239 H   0  0  0  0  0  0  0  0  0  0  0  0
    0.2280    2.8731    1.4710 C   0  0  0  0  0  0  0  0  0  0  0  0
   -0.6111    2.5834    0.8409 H   0  0  0  0  0  0  0  0  0  0  0  0
    0.5515    3.8791    1.2121 H   0  0  0  0  0  0  0  0  0  0  0  0
   -0.0684    2.8490    2.5182 H   0  0  0  0  0  0  0  0  0  0  0  0
    2.4576    2.2930    2.1346 C   0  0  0  0  0  0  0  0  0  0  0  0
    2.8688    3.2493    1.8169 H   0  0  0  0  0  0  0  0  0  0  0  0
    3.2307    1.5298    2.0921 H   0  0  0  0  0  0  0  0  0  0  0  0
    2.0917    2.3736    3.1581 H   0  0  0  0  0  0  0  0  0  0  0  0
    2.4090   -0.6462   -0.6700 H   0  0  0  0  0  0  0  0  0  0  0  0
    1.6266   -2.4106   -2.3294 C   0  0  0  0  0  0  0  0  0  0  0  0
    1.3042   -1.3952   -1.7041 O   0  0  0  0  0  0  0  0  0  0  0  0
    2.8795   -2.9105   -2.2277 N   0  0  0  0  0  0  0  0  0  0  0  0
    3.5271   -2.4675   -1.5990 H   0  0  0  0  0  0  0  0  0  0  0  0
    3.1579   -3.7595   -2.6838 H   0  0  0  0  0  0  0  0  0  0  0  0
    0.7742   -3.0645   -3.1318 N   0  0  0  0  0  0  0  0  0  0  0  0
    1.0758   -3.8576   -3.6677 H   0  0  0  0  0  0  0  0  0  0  0  0
   -0.1725   -2.7277   -3.2747 H   0  0  0  0  0  0  0  0  0  0  0  0
    0.1457    2.1667    5.7038 C   0  0  0  0  0  0  0  0  0  0  0  0
    0.4797    2.1081    4.5290 O   0  0  0  0  0  0  0  0  0  0  0  0
   -1.0916    1.8040    6.1206 N   0  0  0  0  0  0  0  0  0  0  0  0
   -1.7808    1.5722    5.4281 H   0  0  0  0  0  0  0  0  0  0  0  0
   -1.4000    1.9517    7.0639 H   0  0  0  0  0  0  0  0  0  0  0  0
    0.9864    2.5988    6.6746 N   0  0  0  0  0  0  0  0  0  0  0  0
    0.7463    2.5473    7.6475 H   0  0  0  0  0  0  0  0  0  0  0  0
    1.9437    2.7837    6.4348 H   0  0  0  0  0  0  0  0  0  0  0  0
   -3.0461   -2.8861   -3.1552 C   0  0  0  0  0  0  0  0  0  0  0  0
   -2.0114   -2.3946   -3.5950 O   0  0  0  0  0  0  0  0  0  0  0  0
   -3.3989   -4.1657   -3.4347 N   0  0  0  0  0  0  0  0  0  0  0  0
   -2.8721   -4.6526   -4.1387 H   0  0  0  0  0  0  0  0  0  0  0  0
   -4.3111   -4.5202   -3.2101 H   0  0  0  0  0  0  0  0  0  0  0  0
   -3.8911   -2.1992   -2.3561 N   0  0  0  0  0  0  0  0  0  0  0  0
   -4.6898   -2.6418   -1.9398 H   0  0  0  0  0  0  0  0  0  0  0  0
   -3.6334   -1.2746   -2.0356 H   0  0  0  0  0  0  0  0  0  0  0  0
   -1.7744    0.6563   -1.6299 C   0  0  0  0  0  0  0  0  0  0  0  0
   -1.3680    1.1451   -0.5837 O   0  0  0  0  0  0  0  0  0  0  0  0
   -3.1114    0.7397   -1.9931 N   0  0  0  0  0  0  0  0  0  0  0  0
   -3.6413    1.4261   -1.4761 H   0  0  0  0  0  0  0  0  0  0  0  0
   -3.3066    0.7304   -2.9830 H   0  0  0  0  0  0  0  0  0  0  0  0
   -0.9934    0.0015   -2.5033 N   0  0  0  0  0  0  0  0  0  0  0  0
   -1.4292   -0.6143   -3.1819 H   0  0  0  0  0  0  0  0  0  0  0  0
   -0.0949   -0.3405   -2.1658 H   0  0  0  0  0  0  0  0  0  0  0  0
  1  2  1  0  0  0  0
  2  3  1  0  0  0  0
  2  4  1  0  0  0  0
  2  5  1  0  0  0  0
  5  6  1  0  0  0  0
  5  7  1  0  0  0  0
  5  8  1  0  0  0  0
  8  9  1  0  0  0  0
  9 10  1  0  0  0  0
  9 11  1  0  0  0  0
  9 12  1  0  0  0  0
  8 13  1  0  0  0  0
 13 14  1  0  0  0  0
 13 15  1  0  0  0  0
 13 16  1  0  0  0  0
  8 17  1  0  0  0  0
 17 18  1  0  0  0  0
 17 19  1  0  0  0  0
 17 20  1  0  0  0  0
  1 21  1  0  0  0  0
 22 23  4  0  0  0  0
 22 24  4  0  0  0  0
 24 25  1  0  0  0  0
 24 26  1  0  0  0  0
 22 27  4  0  0  0  0
 27 28  1  0  0  0  0
 27 29  1  0  0  0  0
 30 31  2  0  0  0  0
 30 32  4  0  0  0  0
 32 33  1  0  0  0  0
 32 34  1  0  0  0  0
 30 35  4  0  0  0  0
 35 36  1  0  0  0  0
 35 37  1  0  0  0  0
 38 39  2  0  0  0  0
 38 40  4  0  0  0  0
 40 41  1  0  0  0  0
 40 42  1  0  0  0  0
 38 43  4  0  0  0  0
 43 44  1  0  0  0  0
 43 45  1  0  0  0  0
 46 47  2  0  0  0  0
 46 48  1  0  0  0  0
 48 49  1  0  0  0  0
 48 50  1  0  0  0  0
 46 51  4  0  0  0  0
 51 52  1  0  0  0  0
 51 53  1  0  0  0  0
M  CHG  1   1   1
M  END
