 xtb: 6.6.1 (unknown-commit)
          01102415423D

 53 48  0     0  0            999 V2000
   -0.9705   -0.4307   -0.4855 O   0  0  0  0  0  0  0  0  0  0  0  0
   -0.4368   -1.6960   -0.7646 C   0  0  0  0  0  0  0  0  0  0  0  0
   -1.1256   -2.1717   -1.4660 H   0  0  0  0  0  0  0  0  0  0  0  0
    0.5410   -1.5923   -1.2548 H   0  0  0  0  0  0  0  0  0  0  0  0
   -0.2182   -2.5587    0.4871 C   0  0  0  0  0  0  0  0  0  0  0  0
    0.1286   -1.9078    1.2978 H   0  0  0  0  0  0  0  0  0  0  0  0
    0.5496   -3.3037    0.2723 H   0  0  0  0  0  0  0  0  0  0  0  0
   -1.4158   -3.2796    0.9999 N   0  0  0  0  0  0  0  0  0  0  0  0
   -1.0211   -3.9765    2.2366 C   0  0  0  0  0  0  0  0  0  0  0  0
   -0.6645   -3.2411    2.9580 H   0  0  0  0  0  0  0  0  0  0  0  0
   -0.2317   -4.6958    2.0279 H   0  0  0  0  0  0  0  0  0  0  0  0
   -1.8768   -4.5025    2.6547 H   0  0  0  0  0  0  0  0  0  0  0  0
   -1.9177   -4.2640    0.0266 C   0  0  0  0  0  0  0  0  0  0  0  0
   -2.6681   -4.8926    0.5019 H   0  0  0  0  0  0  0  0  0  0  0  0
   -1.1036   -4.8934   -0.3263 H   0  0  0  0  0  0  0  0  0  0  0  0
   -2.3874   -3.7596   -0.8166 H   0  0  0  0  0  0  0  0  0  0  0  0
   -2.4780   -2.3120    1.3157 C   0  0  0  0  0  0  0  0  0  0  0  0
   -2.0850   -1.5786    2.0178 H   0  0  0  0  0  0  0  0  0  0  0  0
   -3.3251   -2.8284    1.7615 H   0  0  0  0  0  0  0  0  0  0  0  0
   -2.8038   -1.8199    0.4025 H   0  0  0  0  0  0  0  0  0  0  0  0
   -0.3138    0.0632    0.0689 H   0  0  0  0  0  0  0  0  0  0  0  0
    4.1235    4.4440   -2.6291 C   0  0  0  0  0  0  0  0  0  0  0  0
    3.4498    3.6269   -2.0155 O   0  0  0  0  0  0  0  0  0  0  0  0
    4.6659    5.5299   -2.0262 N   0  0  0  0  0  0  0  0  0  0  0  0
    4.3973    5.7334   -1.0798 H   0  0  0  0  0  0  0  0  0  0  0  0
    5.1109    6.2591   -2.5533 H   0  0  0  0  0  0  0  0  0  0  0  0
    4.3755    4.3203   -3.9542 N   0  0  0  0  0  0  0  0  0  0  0  0
    5.0272    4.9194   -4.4272 H   0  0  0  0  0  0  0  0  0  0  0  0
    4.1023    3.4686   -4.4117 H   0  0  0  0  0  0  0  0  0  0  0  0
    1.6715    1.5776    0.0007 C   0  0  0  0  0  0  0  0  0  0  0  0
    1.0405    0.8132    0.7452 O   0  0  0  0  0  0  0  0  0  0  0  0
    1.3118    1.7901   -1.2772 N   0  0  0  0  0  0  0  0  0  0  0  0
    0.4586    1.3921   -1.6275 H   0  0  0  0  0  0  0  0  0  0  0  0
    1.8456    2.4385   -1.8357 H   0  0  0  0  0  0  0  0  0  0  0  0
    2.7563    2.2565    0.4128 N   0  0  0  0  0  0  0  0  0  0  0  0
    3.2603    2.8152   -0.2623 H   0  0  0  0  0  0  0  0  0  0  0  0
    3.1619    2.0523    1.3077 H   0  0  0  0  0  0  0  0  0  0  0  0
   -3.8923   -1.3284   -2.3047 C   0  0  0  0  0  0  0  0  0  0  0  0
   -3.3900   -2.3505   -1.8563 O   0  0  0  0  0  0  0  0  0  0  0  0
   -4.8971   -1.3624   -3.2167 N   0  0  0  0  0  0  0  0  0  0  0  0
   -5.3098   -2.2542   -3.4253 H   0  0  0  0  0  0  0  0  0  0  0  0
   -5.4099   -0.5371   -3.4687 H   0  0  0  0  0  0  0  0  0  0  0  0
   -3.4825   -0.0983   -1.9142 N   0  0  0  0  0  0  0  0  0  0  0  0
   -3.8014    0.7270   -2.3880 H   0  0  0  0  0  0  0  0  0  0  0  0
   -2.6316   -0.0380   -1.3681 H   0  0  0  0  0  0  0  0  0  0  0  0
    0.1236   -0.3679    4.0618 C   0  0  0  0  0  0  0  0  0  0  0  0
   -0.3123   -1.2887    3.3788 O   0  0  0  0  0  0  0  0  0  0  0  0
   -0.1518   -0.2818    5.3917 N   0  0  0  0  0  0  0  0  0  0  0  0
   -0.6018   -1.0636    5.8335 H   0  0  0  0  0  0  0  0  0  0  0  0
    0.3232    0.3754    5.9834 H   0  0  0  0  0  0  0  0  0  0  0  0
    0.9004    0.6071    3.5506 N   0  0  0  0  0  0  0  0  0  0  0  0
    1.1005    1.4286    4.0924 H   0  0  0  0  0  0  0  0  0  0  0  0
    0.9813    0.6711    2.5363 H   0  0  0  0  0  0  0  0  0  0  0  0
  1  2  1  0  0  0  0
  2  3  1  0  0  0  0
  2  4  1  0  0  0  0
  2  5  1  0  0  0  0
  5  6  1  0  0  0  0
  5  7  1  0  0  0  0
  5  8  1  0  0  0  0
  8  9  1  0  0  0  0
  9 10  1  0  0  0  0
  9 11  1  0  0  0  0
  9 12  1  0  0  0  0
  8 13  1  0  0  0  0
 13 14  1  0  0  0  0
 13 15  1  0  0  0  0
 13 16  1  0  0  0  0
  8 17  1  0  0  0  0
 17 18  1  0  0  0  0
 17 19  1  0  0  0  0
 17 20  1  0  0  0  0
  1 21  1  0  0  0  0
 22 23  2  0  0  0  0
 22 24  4  0  0  0  0
 24 25  1  0  0  0  0
 24 26  1  0  0  0  0
 22 27  4  0  0  0  0
 27 28  1  0  0  0  0
 27 29  1  0  0  0  0
 30 31  4  0  0  0  0
 30 32  4  0  0  0  0
 32 33  1  0  0  0  0
 32 34  1  0  0  0  0
 30 35  4  0  0  0  0
 35 36  1  0  0  0  0
 35 37  1  0  0  0  0
 38 39  2  0  0  0  0
 38 40  1  0  0  0  0
 40 41  1  0  0  0  0
 40 42  1  0  0  0  0
 38 43  4  0  0  0  0
 43 44  1  0  0  0  0
 43 45  1  0  0  0  0
 46 47  2  0  0  0  0
 46 48  1  0  0  0  0
 48 49  1  0  0  0  0
 48 50  1  0  0  0  0
 46 51  4  0  0  0  0
 51 52  1  0  0  0  0
 51 53  1  0  0  0  0
M  CHG  1   1   1
M  END
