 xtb: 6.6.1 (unknown-commit)
          01102415433D

 53 48  0     0  0            999 V2000
   -0.9665   -0.4216   -0.4653 O   0  0  0  0  0  0  0  0  0  0  0  0
   -0.4992   -1.6835   -0.8569 C   0  0  0  0  0  0  0  0  0  0  0  0
   -1.2469   -2.0891   -1.5420 H   0  0  0  0  0  0  0  0  0  0  0  0
    0.4500   -1.5811   -1.4005 H   0  0  0  0  0  0  0  0  0  0  0  0
   -0.2380   -2.6325    0.3220 C   0  0  0  0  0  0  0  0  0  0  0  0
    0.1791   -2.0471    1.1493 H   0  0  0  0  0  0  0  0  0  0  0  0
    0.4885   -3.3862    0.0142 H   0  0  0  0  0  0  0  0  0  0  0  0
   -1.4285   -3.3465    0.8607 N   0  0  0  0  0  0  0  0  0  0  0  0
   -0.9875   -4.1322    2.0265 C   0  0  0  0  0  0  0  0  0  0  0  0
   -0.5640   -3.4554    2.7688 H   0  0  0  0  0  0  0  0  0  0  0  0
   -0.2375   -4.8615    1.7273 H   0  0  0  0  0  0  0  0  0  0  0  0
   -1.8356   -4.6562    2.4624 H   0  0  0  0  0  0  0  0  0  0  0  0
   -2.0201   -4.2512   -0.1392 C   0  0  0  0  0  0  0  0  0  0  0  0
   -2.7641   -4.8839    0.3406 H   0  0  0  0  0  0  0  0  0  0  0  0
   -1.2504   -4.8832   -0.5772 H   0  0  0  0  0  0  0  0  0  0  0  0
   -2.5188   -3.6801   -0.9208 H   0  0  0  0  0  0  0  0  0  0  0  0
   -2.4361   -2.3681    1.2984 C   0  0  0  0  0  0  0  0  0  0  0  0
   -2.7982   -1.8106    0.4380 H   0  0  0  0  0  0  0  0  0  0  0  0
   -1.9774   -1.6923    2.0181 H   0  0  0  0  0  0  0  0  0  0  0  0
   -3.2728   -2.8849    1.7631 H   0  0  0  0  0  0  0  0  0  0  0  0
   -0.2572    0.0133    0.0737 H   0  0  0  0  0  0  0  0  0  0  0  0
    3.9411    4.6710   -2.5269 C   0  0  0  0  0  0  0  0  0  0  0  0
    3.3111    3.8222   -1.9100 O   0  0  0  0  0  0  0  0  0  0  0  0
    3.3288    5.6484   -3.2377 N   0  0  0  0  0  0  0  0  0  0  0  0
    2.3328    5.7467   -3.1512 H   0  0  0  0  0  0  0  0  0  0  0  0
    3.8428    6.4106   -3.6404 H   0  0  0  0  0  0  0  0  0  0  0  0
    5.2961    4.6949   -2.5414 N   0  0  0  0  0  0  0  0  0  0  0  0
    5.8068    5.3122   -3.1462 H   0  0  0  0  0  0  0  0  0  0  0  0
    5.7900    3.9167   -2.1416 H   0  0  0  0  0  0  0  0  0  0  0  0
    1.7289    1.5247    0.0003 C   0  0  0  0  0  0  0  0  0  0  0  0
    1.1597    0.6793    0.7064 O   0  0  0  0  0  0  0  0  0  0  0  0
    1.2498    1.8954   -1.1995 N   0  0  0  0  0  0  0  0  0  0  0  0
    0.3835    1.5108   -1.5317 H   0  0  0  0  0  0  0  0  0  0  0  0
    1.7440    2.5960   -1.7308 H   0  0  0  0  0  0  0  0  0  0  0  0
    2.8641    2.1359    0.3784 N   0  0  0  0  0  0  0  0  0  0  0  0
    3.2960    2.7955   -0.2530 H   0  0  0  0  0  0  0  0  0  0  0  0
    3.3195    1.8684    1.2313 H   0  0  0  0  0  0  0  0  0  0  0  0
   -4.0209   -1.1074   -2.1597 C   0  0  0  0  0  0  0  0  0  0  0  0
   -3.5357   -2.1721   -1.8011 O   0  0  0  0  0  0  0  0  0  0  0  0
   -5.0768   -1.0493   -3.0109 N   0  0  0  0  0  0  0  0  0  0  0  0
   -5.5364   -1.9108   -3.2467 H   0  0  0  0  0  0  0  0  0  0  0  0
   -5.5680   -0.1916   -3.1854 H   0  0  0  0  0  0  0  0  0  0  0  0
   -3.5399    0.0813   -1.7245 N   0  0  0  0  0  0  0  0  0  0  0  0
   -3.8521    0.9448   -2.1295 H   0  0  0  0  0  0  0  0  0  0  0  0
   -2.6584    0.0772   -1.2256 H   0  0  0  0  0  0  0  0  0  0  0  0
    0.4043   -0.6900    3.9931 C   0  0  0  0  0  0  0  0  0  0  0  0
   -0.1174   -1.5456    3.2858 O   0  0  0  0  0  0  0  0  0  0  0  0
    0.2150   -0.6741    5.3404 N   0  0  0  0  0  0  0  0  0  0  0  0
   -0.2483   -1.4587    5.7633 H   0  0  0  0  0  0  0  0  0  0  0  0
    0.7544   -0.0752    5.9386 H   0  0  0  0  0  0  0  0  0  0  0  0
    1.1973    0.2775    3.4922 N   0  0  0  0  0  0  0  0  0  0  0  0
    1.4704    1.0535    4.0684 H   0  0  0  0  0  0  0  0  0  0  0  0
    1.2174    0.4025    2.4805 H   0  0  0  0  0  0  0  0  0  0  0  0
  1  2  1  0  0  0  0
  2  3  1  0  0  0  0
  2  4  1  0  0  0  0
  2  5  1  0  0  0  0
  5  6  1  0  0  0  0
  5  7  1  0  0  0  0
  5  8  1  0  0  0  0
  8  9  1  0  0  0  0
  9 10  1  0  0  0  0
  9 11  1  0  0  0  0
  9 12  1  0  0  0  0
  8 13  1  0  0  0  0
 13 14  1  0  0  0  0
 13 15  1  0  0  0  0
 13 16  1  0  0  0  0
  8 17  1  0  0  0  0
 17 18  1  0  0  0  0
 17 19  1  0  0  0  0
 17 20  1  0  0  0  0
  1 21  1  0  0  0  0
 22 23  2  0  0  0  0
 22 24  4  0  0  0  0
 24 25  1  0  0  0  0
 24 26  1  0  0  0  0
 22 27  4  0  0  0  0
 27 28  1  0  0  0  0
 27 29  1  0  0  0  0
 30 31  4  0  0  0  0
 30 32  4  0  0  0  0
 32 33  1  0  0  0  0
 32 34  1  0  0  0  0
 30 35  4  0  0  0  0
 35 36  1  0  0  0  0
 35 37  1  0  0  0  0
 38 39  2  0  0  0  0
 38 40  1  0  0  0  0
 40 41  1  0  0  0  0
 40 42  1  0  0  0  0
 38 43  4  0  0  0  0
 43 44  1  0  0  0  0
 43 45  1  0  0  0  0
 46 47  2  0  0  0  0
 46 48  1  0  0  0  0
 48 49  1  0  0  0  0
 48 50  1  0  0  0  0
 46 51  4  0  0  0  0
 51 52  1  0  0  0  0
 51 53  1  0  0  0  0
M  CHG  1   1   1
M  END
