  53

 O         -2.7366792582        0.9803163871        2.8458613240
 C         -2.3634427249       -0.1879982392        3.5413205977
 H         -1.8020873243        0.0767124117        4.4492980961
 H         -3.2492626892       -0.7560528683        3.8518703707
 C         -1.5438205863       -1.1269558396        2.6528353058
 H         -2.1500712436       -1.4800340431        1.8139334942
 H         -1.2693496300       -1.9853152851        3.2694291978
 N         -0.3030175138       -0.5621884646        2.0607073734
 C         -0.6351172550        0.3115530244        0.9213342933
 H         -1.1140041817       -0.2870874695        0.1484937605
 H          0.2746533068        0.7597749059        0.5286748632
 H         -1.3189491433        1.0915159025        1.2428628686
 C          0.5098812321       -1.6807252605        1.5522448485
 H         -0.0695170337       -2.2275526819        0.8097904566
 H          0.7848643463       -2.3478579484        2.3667078163
 H          1.4151851007       -1.2762196217        1.1053772265
 C          0.4900476137        0.1975721323        3.0368350893
 H          0.6669923115       -0.4010460817        3.9286389268
 H         -0.0265119739        1.1154418342        3.3053417911
 H          1.4471923361        0.4476424821        2.5780748527
 H         -3.4555428432        1.4192841206        3.3104877759
 C          0.7934798755       -1.0108677248       -2.0657124121
 O         -0.2655358548       -0.6461171366       -2.5883614720
 N          1.7126183472       -0.1381889777       -1.6299669081
 H          1.4327151217        0.8414510153       -1.5454989041
 H          2.4531155955       -0.4339192832       -1.0152246387
 N          1.0720333321       -2.3300070191       -1.8964896321
 H          1.9989530789       -2.6250063422       -1.6472079633
 H          0.4772114208       -2.9995852929       -2.3531028040
 C          3.6620331070        1.2823302911        0.9003474887
 O          2.9038441187        0.3207718453        1.0073981060
 N          3.2628677269        2.4666896990        0.3951127330
 H          2.3680730015        2.5221290751       -0.0790706954
 H          3.9357577680        3.1848513129        0.1953470682
 N          4.9522498722        1.2109609710        1.3139177383
 H          5.5578179656        2.0109096545        1.3158375305
 H          5.2605131284        0.3811073471        1.7877560776
 C         -0.0680594073        2.9014350477       -1.8608061372
 O          0.8254935388        2.4672615496       -1.1264126027
 N         -0.8209444137        2.0965468758       -2.6200053948
 H         -0.6374373086        1.0890487857       -2.6371316783
 H         -1.5218975998        2.4667739619       -3.2348538925
 N         -0.3461347579        4.2271605961       -1.9041891019
 H         -1.0227129530        4.6100019681       -2.5381224980
 H          0.2283875806        4.8603970122       -1.3784296829
 C         -2.7211773065       -2.7368084923       -1.0507881984
 O         -2.0584428400       -2.3567115246       -0.0905113638
 N         -3.8572233259       -3.4686334325       -0.8820801232
 H         -4.0545122742       -3.8297831016        0.0343489988
 H         -4.3097479041       -3.9130494869       -1.6604704129
 N         -2.3733763151       -2.4666285067       -2.3242755122
 H         -3.0146207720       -2.6516245450       -3.0748100104
 H         -1.6406549788       -1.7728853357       -2.4870998701
