 xtb: 6.6.1 (unknown-commit)
          01102418273D

 53 48  0     0  0            999 V2000
   -2.7367    0.9803    2.8459 O   0  0  0  0  0  0  0  0  0  0  0  0
   -2.3634   -0.1880    3.5413 C   0  0  0  0  0  0  0  0  0  0  0  0
   -1.8021    0.0767    4.4493 H   0  0  0  0  0  0  0  0  0  0  0  0
   -3.2493   -0.7560    3.8519 H   0  0  0  0  0  0  0  0  0  0  0  0
   -1.5438   -1.1269    2.6528 C   0  0  0  0  0  0  0  0  0  0  0  0
   -2.1501   -1.4800    1.8139 H   0  0  0  0  0  0  0  0  0  0  0  0
   -1.2693   -1.9853    3.2694 H   0  0  0  0  0  0  0  0  0  0  0  0
   -0.3030   -0.5622    2.0607 N   0  0  0  0  0  0  0  0  0  0  0  0
   -0.6351    0.3116    0.9213 C   0  0  0  0  0  0  0  0  0  0  0  0
   -1.1140   -0.2871    0.1485 H   0  0  0  0  0  0  0  0  0  0  0  0
    0.2747    0.7598    0.5287 H   0  0  0  0  0  0  0  0  0  0  0  0
   -1.3189    1.0915    1.2429 H   0  0  0  0  0  0  0  0  0  0  0  0
    0.5099   -1.6807    1.5522 C   0  0  0  0  0  0  0  0  0  0  0  0
   -0.0695   -2.2276    0.8098 H   0  0  0  0  0  0  0  0  0  0  0  0
    0.7849   -2.3479    2.3667 H   0  0  0  0  0  0  0  0  0  0  0  0
    1.4152   -1.2762    1.1054 H   0  0  0  0  0  0  0  0  0  0  0  0
    0.4901    0.1976    3.0368 C   0  0  0  0  0  0  0  0  0  0  0  0
    0.6670   -0.4010    3.9286 H   0  0  0  0  0  0  0  0  0  0  0  0
   -0.0265    1.1154    3.3053 H   0  0  0  0  0  0  0  0  0  0  0  0
    1.4472    0.4476    2.5781 H   0  0  0  0  0  0  0  0  0  0  0  0
   -3.4555    1.4193    3.3105 H   0  0  0  0  0  0  0  0  0  0  0  0
    0.7935   -1.0109   -2.0657 C   0  0  0  0  0  0  0  0  0  0  0  0
   -0.2655   -0.6461   -2.5884 O   0  0  0  0  0  0  0  0  0  0  0  0
    1.7126   -0.1382   -1.6300 N   0  0  0  0  0  0  0  0  0  0  0  0
    1.4327    0.8414   -1.5455 H   0  0  0  0  0  0  0  0  0  0  0  0
    2.4531   -0.4339   -1.0152 H   0  0  0  0  0  0  0  0  0  0  0  0
    1.0720   -2.3300   -1.8965 N   0  0  0  0  0  0  0  0  0  0  0  0
    1.9989   -2.6250   -1.6472 H   0  0  0  0  0  0  0  0  0  0  0  0
    0.4772   -2.9996   -2.3531 H   0  0  0  0  0  0  0  0  0  0  0  0
    3.6620    1.2823    0.9003 C   0  0  0  0  0  0  0  0  0  0  0  0
    2.9038    0.3208    1.0074 O   0  0  0  0  0  0  0  0  0  0  0  0
    3.2629    2.4667    0.3951 N   0  0  0  0  0  0  0  0  0  0  0  0
    2.3681    2.5221   -0.0791 H   0  0  0  0  0  0  0  0  0  0  0  0
    3.9358    3.1848    0.1953 H   0  0  0  0  0  0  0  0  0  0  0  0
    4.9523    1.2109    1.3139 N   0  0  0  0  0  0  0  0  0  0  0  0
    5.5578    2.0109    1.3158 H   0  0  0  0  0  0  0  0  0  0  0  0
    5.2605    0.3811    1.7877 H   0  0  0  0  0  0  0  0  0  0  0  0
   -0.0681    2.9014   -1.8608 C   0  0  0  0  0  0  0  0  0  0  0  0
    0.8255    2.4673   -1.1264 O   0  0  0  0  0  0  0  0  0  0  0  0
   -0.8209    2.0965   -2.6200 N   0  0  0  0  0  0  0  0  0  0  0  0
   -0.6374    1.0890   -2.6371 H   0  0  0  0  0  0  0  0  0  0  0  0
   -1.5219    2.4668   -3.2349 H   0  0  0  0  0  0  0  0  0  0  0  0
   -0.3461    4.2272   -1.9042 N   0  0  0  0  0  0  0  0  0  0  0  0
   -1.0227    4.6100   -2.5381 H   0  0  0  0  0  0  0  0  0  0  0  0
    0.2284    4.8604   -1.3784 H   0  0  0  0  0  0  0  0  0  0  0  0
   -2.7212   -2.7368   -1.0508 C   0  0  0  0  0  0  0  0  0  0  0  0
   -2.0585   -2.3567   -0.0905 O   0  0  0  0  0  0  0  0  0  0  0  0
   -3.8572   -3.4686   -0.8821 N   0  0  0  0  0  0  0  0  0  0  0  0
   -4.0545   -3.8298    0.0344 H   0  0  0  0  0  0  0  0  0  0  0  0
   -4.3098   -3.9130   -1.6604 H   0  0  0  0  0  0  0  0  0  0  0  0
   -2.3734   -2.4666   -2.3243 N   0  0  0  0  0  0  0  0  0  0  0  0
   -3.0146   -2.6516   -3.0748 H   0  0  0  0  0  0  0  0  0  0  0  0
   -1.6407   -1.7729   -2.4871 H   0  0  0  0  0  0  0  0  0  0  0  0
  1  2  1  0  0  0  0
  2  3  1  0  0  0  0
  2  4  1  0  0  0  0
  2  5  1  0  0  0  0
  5  6  1  0  0  0  0
  5  7  1  0  0  0  0
  5  8  1  0  0  0  0
  8  9  1  0  0  0  0
  9 10  1  0  0  0  0
  9 11  1  0  0  0  0
  9 12  1  0  0  0  0
  8 13  1  0  0  0  0
 13 14  1  0  0  0  0
 13 15  1  0  0  0  0
 13 16  1  0  0  0  0
  8 17  1  0  0  0  0
 17 18  1  0  0  0  0
 17 19  1  0  0  0  0
 17 20  1  0  0  0  0
  1 21  1  0  0  0  0
 22 23  4  0  0  0  0
 22 24  4  0  0  0  0
 24 25  1  0  0  0  0
 24 26  1  0  0  0  0
 22 27  1  0  0  0  0
 27 28  1  0  0  0  0
 27 29  1  0  0  0  0
 30 31  2  0  0  0  0
 30 32  4  0  0  0  0
 32 33  1  0  0  0  0
 32 34  1  0  0  0  0
 30 35  4  0  0  0  0
 35 36  1  0  0  0  0
 35 37  1  0  0  0  0
 38 39  4  0  0  0  0
 38 40  4  0  0  0  0
 40 41  1  0  0  0  0
 40 42  1  0  0  0  0
 38 43  4  0  0  0  0
 43 44  1  0  0  0  0
 43 45  1  0  0  0  0
 46 47  2  0  0  0  0
 46 48  1  0  0  0  0
 48 49  1  0  0  0  0
 48 50  1  0  0  0  0
 46 51  4  0  0  0  0
 51 52  1  0  0  0  0
 51 53  1  0  0  0  0
M  CHG  1   1   1
M  END
