53
 xtb: 6.6.1 (unknown-commit)
O           -1.15121295368094        0.90807356515491       -1.25756921738239
C           -0.06999694521466        0.03123000598943       -1.47109098586019
H           -0.23616540876369       -0.40498848656174       -2.45941366509058
H            0.87738498197430        0.57658990376145       -1.49598914879700
C           -0.03110904056967       -1.11823254268778       -0.44711002782988
H            0.22812921194897       -2.05700254522277       -0.94023677506325
H           -1.03340861138370       -1.20528630871636       -0.02210695075505
N            0.91799562169946       -0.97108320636324        0.68973187756059
C            2.30670118257636       -1.09407985837731        0.22149477250986
H            2.41303158751120       -2.03073773257902       -0.32081119877665
H            2.97579351301409       -1.09899361604214        1.08333849829739
H            2.56315179713328       -0.25040921046334       -0.40606134207601
C            0.62941078372599       -2.06706975115100        1.62983790254484
H            0.73432996071447       -3.01996181600091        1.11219326862741
H           -0.39187307130677       -1.96559426363991        2.00781348850030
H            1.31695115491640       -2.03445524369619        2.47000249814545
C            0.73121496794391        0.31554375158500        1.37311632907698
H           -0.32234247152519        0.43216822898217        1.63019411254315
H            1.05565943712795        1.12885926853224        0.73084251825645
H            1.32385633356292        0.33614532990092        2.28554277993726
H           -0.91961205015339        1.58779545627113       -0.58979131984106
C            1.61249505121353       -4.99711415668986       -1.37631475127021
O            1.36504176045659       -3.93998634253856       -0.81321877100295
N            0.95916877677085       -5.38147681926655       -2.51044592482487
H            0.07249946674482       -4.92039240060322       -2.70770641634940
H            1.03469901094317       -6.34279466547581       -2.84022758823500
N            2.55729071058751       -5.86286222487980       -0.90644635721516
H            2.89335996587659       -6.61982645784737       -1.50881116581446
H            3.25203814498565       -5.48288512521125       -0.26656873335965
C           -1.33757887850552        3.34517793014400        1.49018867576760
O           -0.68044166312916        2.93161794899408        0.53395067478412
N           -1.27431931521634        4.64203444008850        1.87400320401102
H           -0.68225035280850        5.27264560588796        1.36365306980955
H           -1.79945945957264        5.00011795754787        2.64889114154198
N           -2.14027751460269        2.54531721576014        2.21035161506946
H           -2.67520806744732        2.90141375917890        2.98048382881083
H           -2.23112092584143        1.56030862272864        1.97547548358872
C            2.50950252719803        2.99502396498085       -1.21809182355225
O            2.44870831660632        1.83802788896664       -0.82182341075325
N            1.59763687596245        3.92789358409824       -0.86687032626719
H            0.76085775873637        3.61238652897458       -0.38334491932857
H            1.57167737067958        4.80753007185180       -1.34208684788231
N            3.50469041995351        3.41290965235276       -2.04552989984229
H            3.65568278583211        4.38339301895380       -2.23288800361981
H            4.28123804329918        2.78402492611657       -2.19329973755592
C           -3.51904694817573       -0.41930311676441        0.97186380940043
O           -2.49353126787265       -0.21299952577386        1.62666436768260
N           -4.65156039700917       -0.86896104477315        1.56567030111174
H           -4.62444879102771       -1.11408743062378        2.52763636024529
H           -5.46551308300738       -1.12798660731048        1.02373232506572
N           -3.56434805759137       -0.22158864655312       -0.35636190337552
H           -4.42776625326749       -0.27530353095469       -0.87226353626742
H           -2.76073059795716        0.22898767247940       -0.80880879810421
