  53

 O         -1.1166172053        0.5979299654        1.0803134862
 C         -2.5014787986        0.4013331542        0.9480380737
 H         -2.8094646486       -0.5148088598        1.4568574947
 H         -2.9647241971        1.2512758079        1.4568152342
 C         -2.9630286134        0.4236630582       -0.5205683371
 H         -2.2153998569        0.9836409393       -1.0937688964
 H         -3.9231027051        0.9367975386       -0.5905196682
 N         -3.1142999299       -0.8939913421       -1.1993055025
 C         -4.2313199938       -1.6629672696       -0.6283214745
 H         -5.1375095807       -1.0609906853       -0.6127195292
 H         -3.9823631935       -1.9829941654        0.3823225143
 H         -4.4074658809       -2.5518938440       -1.2309257748
 C         -1.8784978645       -1.6857312592       -1.0887340751
 H         -1.7317822052       -2.0053559559       -0.0577274162
 H         -1.0357816508       -1.0856798891       -1.4240841379
 H         -1.9554659158       -2.5725599131       -1.7136190112
 C         -3.3679580758       -0.6181764809       -2.6244204835
 H         -4.2655386167       -0.0135786874       -2.7400591255
 H         -3.4998679962       -1.5517650656       -3.1675893470
 H         -2.5146301870       -0.0808000398       -3.0374712902
 H         -0.6402985297       -0.2401495552        0.8993981391
 C          1.7398283684       -0.6461513369        0.5577836238
 O          0.7261411982       -1.3504816026        0.5480659292
 N          1.9571484433        0.2864601655        1.5117428864
 H          1.1931267636        0.5266597928        2.1207110554
 H          2.6848313356        0.9675120625        1.3669742789
 N          2.7287177497       -0.7927657747       -0.3460702897
 H          3.4302966180       -0.0767072077       -0.4310467694
 H          2.5929547998       -1.4355803416       -1.1056543195
 C          4.0249896106        3.2563520570       -0.2543706369
 O          3.5172239157        2.1367934464       -0.2049675683
 N          5.3142380866        3.4688908921        0.0783022315
 H          5.8847750282        2.6848308919        0.3405372458
 H          5.7475044771        4.3710709842        0.0059171193
 N          3.3231985665        4.3381683000       -0.6598992068
 H          3.7101579276        5.2637279188       -0.6307218734
 H          2.3385426973        4.2412459676       -0.8401194378
 C          0.5138382149        1.2969154991       -2.0241846519
 O         -0.5637212461        0.8490700534       -2.3991139394
 N          0.6785665428        1.9320893079       -0.8375298692
 H         -0.0302092151        1.7632082697       -0.1322415960
 H          1.6294778369        2.0424724833       -0.5029214205
 N          1.6347891839        1.1993884577       -2.7856005939
 H          2.4876846994        1.6427446685       -2.4943413777
 H          1.5409572097        0.9184330774       -3.7452297267
 C         -1.7774065408       -3.1484697821        2.6190077152
 O         -2.5154841607       -2.6065559739        1.8018290425
 N         -2.2627679460       -4.0056715121        3.5522453298
 H         -3.2587986714       -4.1049813693        3.6336373618
 H         -1.6912601911       -4.3566690851        4.2986323895
 N         -0.4474410435       -2.9242428661        2.6496180770
 H          0.1516136502       -3.4752663597        3.2369796727
 H         -0.0172491534       -2.4060031474        1.8899110953
