 xtb: 6.6.1 (unknown-commit)
          01102418273D

 53 48  0     0  0            999 V2000
   -1.1166    0.5979    1.0803 O   0  0  0  0  0  0  0  0  0  0  0  0
   -2.5015    0.4013    0.9480 C   0  0  0  0  0  0  0  0  0  0  0  0
   -2.8095   -0.5148    1.4569 H   0  0  0  0  0  0  0  0  0  0  0  0
   -2.9647    1.2513    1.4568 H   0  0  0  0  0  0  0  0  0  0  0  0
   -2.9630    0.4237   -0.5206 C   0  0  0  0  0  0  0  0  0  0  0  0
   -2.2154    0.9837   -1.0938 H   0  0  0  0  0  0  0  0  0  0  0  0
   -3.9231    0.9368   -0.5905 H   0  0  0  0  0  0  0  0  0  0  0  0
   -3.1143   -0.8940   -1.1993 N   0  0  0  0  0  0  0  0  0  0  0  0
   -4.2313   -1.6629   -0.6283 C   0  0  0  0  0  0  0  0  0  0  0  0
   -5.1375   -1.0610   -0.6127 H   0  0  0  0  0  0  0  0  0  0  0  0
   -3.9824   -1.9830    0.3823 H   0  0  0  0  0  0  0  0  0  0  0  0
   -4.4075   -2.5519   -1.2309 H   0  0  0  0  0  0  0  0  0  0  0  0
   -1.8785   -1.6857   -1.0887 C   0  0  0  0  0  0  0  0  0  0  0  0
   -1.7318   -2.0053   -0.0577 H   0  0  0  0  0  0  0  0  0  0  0  0
   -1.0358   -1.0857   -1.4241 H   0  0  0  0  0  0  0  0  0  0  0  0
   -1.9555   -2.5726   -1.7136 H   0  0  0  0  0  0  0  0  0  0  0  0
   -3.3680   -0.6182   -2.6244 C   0  0  0  0  0  0  0  0  0  0  0  0
   -4.2655   -0.0136   -2.7400 H   0  0  0  0  0  0  0  0  0  0  0  0
   -3.4999   -1.5518   -3.1676 H   0  0  0  0  0  0  0  0  0  0  0  0
   -2.5146   -0.0808   -3.0375 H   0  0  0  0  0  0  0  0  0  0  0  0
   -0.6403   -0.2401    0.8994 H   0  0  0  0  0  0  0  0  0  0  0  0
    1.7398   -0.6462    0.5578 C   0  0  0  0  0  0  0  0  0  0  0  0
    0.7261   -1.3505    0.5481 O   0  0  0  0  0  0  0  0  0  0  0  0
    1.9572    0.2865    1.5117 N   0  0  0  0  0  0  0  0  0  0  0  0
    1.1931    0.5267    2.1207 H   0  0  0  0  0  0  0  0  0  0  0  0
    2.6848    0.9675    1.3670 H   0  0  0  0  0  0  0  0  0  0  0  0
    2.7287   -0.7928   -0.3461 N   0  0  0  0  0  0  0  0  0  0  0  0
    3.4303   -0.0767   -0.4311 H   0  0  0  0  0  0  0  0  0  0  0  0
    2.5929   -1.4356   -1.1057 H   0  0  0  0  0  0  0  0  0  0  0  0
    4.0250    3.2563   -0.2544 C   0  0  0  0  0  0  0  0  0  0  0  0
    3.5172    2.1368   -0.2050 O   0  0  0  0  0  0  0  0  0  0  0  0
    5.3143    3.4689    0.0783 N   0  0  0  0  0  0  0  0  0  0  0  0
    5.8848    2.6848    0.3405 H   0  0  0  0  0  0  0  0  0  0  0  0
    5.7475    4.3710    0.0059 H   0  0  0  0  0  0  0  0  0  0  0  0
    3.3232    4.3381   -0.6599 N   0  0  0  0  0  0  0  0  0  0  0  0
    3.7102    5.2637   -0.6307 H   0  0  0  0  0  0  0  0  0  0  0  0
    2.3386    4.2412   -0.8401 H   0  0  0  0  0  0  0  0  0  0  0  0
    0.5138    1.2969   -2.0242 C   0  0  0  0  0  0  0  0  0  0  0  0
   -0.5637    0.8491   -2.3991 O   0  0  0  0  0  0  0  0  0  0  0  0
    0.6786    1.9321   -0.8375 N   0  0  0  0  0  0  0  0  0  0  0  0
   -0.0302    1.7632   -0.1322 H   0  0  0  0  0  0  0  0  0  0  0  0
    1.6295    2.0425   -0.5029 H   0  0  0  0  0  0  0  0  0  0  0  0
    1.6348    1.1994   -2.7856 N   0  0  0  0  0  0  0  0  0  0  0  0
    2.4877    1.6427   -2.4944 H   0  0  0  0  0  0  0  0  0  0  0  0
    1.5409    0.9184   -3.7452 H   0  0  0  0  0  0  0  0  0  0  0  0
   -1.7774   -3.1485    2.6190 C   0  0  0  0  0  0  0  0  0  0  0  0
   -2.5155   -2.6065    1.8018 O   0  0  0  0  0  0  0  0  0  0  0  0
   -2.2628   -4.0057    3.5523 N   0  0  0  0  0  0  0  0  0  0  0  0
   -3.2588   -4.1050    3.6337 H   0  0  0  0  0  0  0  0  0  0  0  0
   -1.6913   -4.3567    4.2986 H   0  0  0  0  0  0  0  0  0  0  0  0
   -0.4474   -2.9242    2.6496 N   0  0  0  0  0  0  0  0  0  0  0  0
    0.1516   -3.4753    3.2370 H   0  0  0  0  0  0  0  0  0  0  0  0
   -0.0173   -2.4060    1.8899 H   0  0  0  0  0  0  0  0  0  0  0  0
  1  2  1  0  0  0  0
  2  3  1  0  0  0  0
  2  4  1  0  0  0  0
  2  5  1  0  0  0  0
  5  6  1  0  0  0  0
  5  7  1  0  0  0  0
  5  8  1  0  0  0  0
  8  9  1  0  0  0  0
  9 10  1  0  0  0  0
  9 11  1  0  0  0  0
  9 12  1  0  0  0  0
  8 13  1  0  0  0  0
 13 14  1  0  0  0  0
 13 15  1  0  0  0  0
 13 16  1  0  0  0  0
  8 17  1  0  0  0  0
 17 18  1  0  0  0  0
 17 19  1  0  0  0  0
 17 20  1  0  0  0  0
  1 21  1  0  0  0  0
 22 23  4  0  0  0  0
 22 24  4  0  0  0  0
 24 25  1  0  0  0  0
 24 26  1  0  0  0  0
 22 27  4  0  0  0  0
 27 28  1  0  0  0  0
 27 29  1  0  0  0  0
 30 31  2  0  0  0  0
 30 32  4  0  0  0  0
 32 33  1  0  0  0  0
 32 34  1  0  0  0  0
 30 35  4  0  0  0  0
 35 36  1  0  0  0  0
 35 37  1  0  0  0  0
 38 39  2  0  0  0  0
 38 40  4  0  0  0  0
 40 41  1  0  0  0  0
 40 42  1  0  0  0  0
 38 43  1  0  0  0  0
 43 44  1  0  0  0  0
 43 45  1  0  0  0  0
 46 47  2  0  0  0  0
 46 48  1  0  0  0  0
 48 49  1  0  0  0  0
 48 50  1  0  0  0  0
 46 51  4  0  0  0  0
 51 52  1  0  0  0  0
 51 53  1  0  0  0  0
M  CHG  1   1   1
M  END
