 xtb: 6.6.1 (unknown-commit)
          01102418313D

 53 48  0     0  0            999 V2000
   -1.7433   -1.3002    2.2176 O   0  0  0  0  0  0  0  0  0  0  0  0
   -0.7286   -1.7545    1.3694 C   0  0  0  0  0  0  0  0  0  0  0  0
    0.0355   -2.2022    2.0092 H   0  0  0  0  0  0  0  0  0  0  0  0
   -1.1052   -2.5416    0.6997 H   0  0  0  0  0  0  0  0  0  0  0  0
   -0.1595   -0.6641    0.4553 C   0  0  0  0  0  0  0  0  0  0  0  0
   -1.0072   -0.2288   -0.0804 H   0  0  0  0  0  0  0  0  0  0  0  0
    0.5194   -1.1223   -0.2635 H   0  0  0  0  0  0  0  0  0  0  0  0
    0.5762    0.4415    1.1214 N   0  0  0  0  0  0  0  0  0  0  0  0
   -0.3032    1.2047    2.0213 C   0  0  0  0  0  0  0  0  0  0  0  0
   -1.1608    1.5778    1.4652 H   0  0  0  0  0  0  0  0  0  0  0  0
    0.2626    2.0367    2.4371 H   0  0  0  0  0  0  0  0  0  0  0  0
   -0.6672    0.5613    2.8192 H   0  0  0  0  0  0  0  0  0  0  0  0
    1.0845    1.3466    0.0767 C   0  0  0  0  0  0  0  0  0  0  0  0
    0.2548    1.7389   -0.5066 H   0  0  0  0  0  0  0  0  0  0  0  0
    1.7574    0.8003   -0.5813 H   0  0  0  0  0  0  0  0  0  0  0  0
    1.6172    2.1661    0.5571 H   0  0  0  0  0  0  0  0  0  0  0  0
    1.7306   -0.0609    1.8804 C   0  0  0  0  0  0  0  0  0  0  0  0
    2.3684   -0.6489    1.2233 H   0  0  0  0  0  0  0  0  0  0  0  0
    1.3993   -0.6740    2.7141 H   0  0  0  0  0  0  0  0  0  0  0  0
    2.2870    0.7930    2.2655 H   0  0  0  0  0  0  0  0  0  0  0  0
   -2.4140   -0.8639    1.6562 H   0  0  0  0  0  0  0  0  0  0  0  0
    2.1407   -2.4811   -1.9225 C   0  0  0  0  0  0  0  0  0  0  0  0
    2.1537   -1.2781   -1.6434 O   0  0  0  0  0  0  0  0  0  0  0  0
    3.2742   -3.2200   -1.8815 N   0  0  0  0  0  0  0  0  0  0  0  0
    4.1470   -2.7472   -1.7287 H   0  0  0  0  0  0  0  0  0  0  0  0
    3.2984   -4.1745   -2.1902 H   0  0  0  0  0  0  0  0  0  0  0  0
    1.0018   -3.1259   -2.2230 N   0  0  0  0  0  0  0  0  0  0  0  0
    1.0014   -4.0925   -2.4914 H   0  0  0  0  0  0  0  0  0  0  0  0
    0.1321   -2.5952   -2.2991 H   0  0  0  0  0  0  0  0  0  0  0  0
    2.8832    3.8558    3.1036 C   0  0  0  0  0  0  0  0  0  0  0  0
    2.2950    2.9771    2.4884 O   0  0  0  0  0  0  0  0  0  0  0  0
    3.4187    4.9357    2.4860 N   0  0  0  0  0  0  0  0  0  0  0  0
    3.4135    4.9670    1.4825 H   0  0  0  0  0  0  0  0  0  0  0  0
    3.9849    5.6032    2.9766 H   0  0  0  0  0  0  0  0  0  0  0  0
    3.0426    3.8120    4.4483 N   0  0  0  0  0  0  0  0  0  0  0  0
    3.4331    4.5801    4.9626 H   0  0  0  0  0  0  0  0  0  0  0  0
    2.5788    3.0863    4.9648 H   0  0  0  0  0  0  0  0  0  0  0  0
   -1.0068   -0.3866   -3.0979 C   0  0  0  0  0  0  0  0  0  0  0  0
   -1.2488   -1.4512   -2.5215 O   0  0  0  0  0  0  0  0  0  0  0  0
    0.2038    0.1955   -3.0364 N   0  0  0  0  0  0  0  0  0  0  0  0
    0.9657   -0.3134   -2.5833 H   0  0  0  0  0  0  0  0  0  0  0  0
    0.4344    0.9711   -3.6304 H   0  0  0  0  0  0  0  0  0  0  0  0
   -1.9631    0.2621   -3.8013 N   0  0  0  0  0  0  0  0  0  0  0  0
   -1.8036    1.1636   -4.2118 H   0  0  0  0  0  0  0  0  0  0  0  0
   -2.9027   -0.0925   -3.7779 H   0  0  0  0  0  0  0  0  0  0  0  0
   -4.0737   -0.7957   -0.3536 C   0  0  0  0  0  0  0  0  0  0  0  0
   -3.1785   -0.1400    0.1735 O   0  0  0  0  0  0  0  0  0  0  0  0
   -5.3055   -0.8861    0.2056 N   0  0  0  0  0  0  0  0  0  0  0  0
   -5.5059   -0.3196    1.0107 H   0  0  0  0  0  0  0  0  0  0  0  0
   -6.0739   -1.3295   -0.2634 H   0  0  0  0  0  0  0  0  0  0  0  0
   -3.8945   -1.4528   -1.5207 N   0  0  0  0  0  0  0  0  0  0  0  0
   -4.5764   -2.1234   -1.8287 H   0  0  0  0  0  0  0  0  0  0  0  0
   -2.9389   -1.5626   -1.8612 H   0  0  0  0  0  0  0  0  0  0  0  0
  1  2  1  0  0  0  0
  2  3  1  0  0  0  0
  2  4  1  0  0  0  0
  2  5  1  0  0  0  0
  5  6  1  0  0  0  0
  5  7  1  0  0  0  0
  5  8  1  0  0  0  0
  8  9  1  0  0  0  0
  9 10  1  0  0  0  0
  9 11  1  0  0  0  0
  9 12  1  0  0  0  0
  8 13  1  0  0  0  0
 13 14  1  0  0  0  0
 13 15  1  0  0  0  0
 13 16  1  0  0  0  0
  8 17  1  0  0  0  0
 17 18  1  0  0  0  0
 17 19  1  0  0  0  0
 17 20  1  0  0  0  0
  1 21  1  0  0  0  0
 22 23  4  0  0  0  0
 22 24  4  0  0  0  0
 24 25  1  0  0  0  0
 24 26  1  0  0  0  0
 22 27  4  0  0  0  0
 27 28  1  0  0  0  0
 27 29  1  0  0  0  0
 30 31  2  0  0  0  0
 30 32  4  0  0  0  0
 32 33  1  0  0  0  0
 32 34  1  0  0  0  0
 30 35  4  0  0  0  0
 35 36  1  0  0  0  0
 35 37  1  0  0  0  0
 38 39  4  0  0  0  0
 38 40  4  0  0  0  0
 40 41  1  0  0  0  0
 40 42  1  0  0  0  0
 38 43  4  0  0  0  0
 43 44  1  0  0  0  0
 43 45  1  0  0  0  0
 46 47  2  0  0  0  0
 46 48  4  0  0  0  0
 48 49  1  0  0  0  0
 48 50  1  0  0  0  0
 46 51  4  0  0  0  0
 51 52  1  0  0  0  0
 51 53  1  0  0  0  0
M  CHG  1   1   1
M  END
