  53

 O         -0.4047000078       -0.8922563518        1.3502434826
 C          0.9864194298       -0.8113712713        1.2463069279
 H          1.3210421755        0.2325324780        1.3251831563
 H          1.3987916484       -1.3530720045        2.1017096312
 C          1.5634051194       -1.3415212799       -0.0737858944
 H          2.6476686237       -1.2278606790       -0.0291787306
 H          1.1615286431       -0.7618340173       -0.9093979162
 N          1.2880159555       -2.7727868033       -0.3823767896
 C          1.6860521566       -3.6409750178        0.7341692797
 H          2.7248258521       -3.4294547888        0.9862096254
 H          1.5932910648       -4.6842617401        0.4381697626
 H          1.0460313978       -3.4646764164        1.5948393579
 C          2.0892899821       -3.1238433885       -1.5676878414
 H          3.1448442595       -3.0162439919       -1.3247189827
 H          1.8190988400       -2.4556693847       -2.3837001370
 H          1.8867939819       -4.1518556090       -1.8606990048
 C         -0.1368459797       -2.9628340663       -0.6972356896
 H         -0.7447113999       -2.6569293955        0.1516176052
 H         -0.3287590541       -4.0080142036       -0.9308722740
 H         -0.3842344644       -2.3447554859       -1.5597591618
 H         -0.7935103883       -0.2817983036        0.6709051984
 C          5.7463436436       -2.2380939375        0.4519603818
 O          4.5446218702       -2.4081992746        0.3043110866
 N          6.5421214659       -1.7983390897       -0.5534949351
 H          6.1122001564       -1.5072280075       -1.4130824292
 H          7.5049547211       -1.5589397683       -0.4034095057
 N          6.3719823039       -2.4765006359        1.6300758465
 H          7.3709681809       -2.4419576458        1.7181407611
 H          5.8473969650       -2.8989221750        2.3748420345
 C         -2.1741946443        1.6761303195        0.2996462246
 O         -1.4117126846        0.9233248067       -0.3262568283
 N         -2.4977417918        1.4635092742        1.5843916596
 H         -2.0977437540        0.6840495698        2.0773084096
 H         -3.0994578599        2.1260397990        2.0522600557
 N         -2.7525664721        2.7506775911       -0.2678238675
 H         -3.3215522183        3.3555839179        0.3054857431
 H         -2.5020893737        3.0229666515       -1.2000261645
 C         -0.2226757059       -0.1477370744       -3.6589141494
 O          0.4291426907       -0.9404913636       -2.9887866398
 N         -0.9576089468        0.8377124628       -3.1079694938
 H         -1.0898935170        0.8494424395       -2.0959231217
 H         -1.5883005721        1.3736192669       -3.6763756693
 N         -0.2474454461       -0.2239561173       -5.0188489914
 H         -0.6390606027        0.5125690763       -5.5773490516
 H          0.3996961635       -0.8495966197       -5.4648662028
 C         -4.9976818859        4.3991744275        2.7001078598
 O         -4.1812764378        3.7629712037        2.0479614410
 N         -5.6971361099        3.8444766713        3.7200732922
 H         -5.6297674309        2.8520891736        3.8604409362
 H         -6.4504135127        4.3314747728        4.1703628336
 N         -5.2624043578        5.7042304588        2.4488976663
 H         -5.8338553137        6.2554421526        3.0629438776
 H         -4.6780995413        6.1888000822        1.7908992488
