  53

 O          2.3410177279        0.5174227430       -1.4916701759
 C          1.2104881111        1.2432752770       -1.8781512532
 H          1.5424923617        2.2747795081       -2.0331211038
 H          0.8025425528        0.8796642069       -2.8273321792
 C          0.0498168069        1.2126568436       -0.8626493777
 H         -0.4355186812        0.2344348000       -0.8657689969
 H         -0.6818691647        1.9523816374       -1.1924907277
 N          0.4319909124        1.5162684291        0.5428297555
 C          1.0155904480        0.3235596837        1.1820311134
 H          0.2710656736       -0.4695897770        1.1915416910
 H          1.2891421778        0.5814672365        2.2036846389
 H          1.8955012265        0.0065762014        0.6276533565
 C         -0.7770385400        1.8761271353        1.3017291445
 H         -1.4814463466        1.0467458286        1.2521483026
 H         -1.2329471459        2.7730901989        0.8881425589
 H         -0.4930875159        2.0575016709        2.3372632808
 C          1.3987459160        2.6219715762        0.6252643198
 H          1.0008631783        3.5066208308        0.1322815170
 H          2.3344319195        2.3291733921        0.1551583130
 H          1.5772968030        2.8417320640        1.6770850023
 H          2.2258767880       -0.4260945957       -1.7256601161
 C          1.0853651047       -2.5989211210       -1.0267791987
 O          1.7119193377       -2.0880003937       -1.9617591785
 N          1.7402954699       -3.1575766684        0.0247972466
 H          2.7246482850       -3.3301631624       -0.0920956902
 H          1.2468927977       -3.7439880066        0.6746609681
 N         -0.2542945016       -2.5995788558       -0.9860218632
 H         -0.7460772467       -2.8143469022       -0.1363261348
 H         -0.7480585699       -2.0234647719       -1.6711157237
 C          1.6483848121        2.5374973283        4.8432407290
 O          1.2371621556        2.2647243993        3.7240066366
 N          0.9851443275        3.3790091394        5.6716236369
 H          0.0834517004        3.7197127423        5.3906070048
 H          1.2729032552        3.5298615184        6.6209204580
 N          2.7979257606        2.0164905184        5.3366640018
 H          3.1883128112        2.3223237404        6.2090114724
 H          3.3789912132        1.4707503858        4.7259820584
 C         -0.9999492803       -1.0315386371       -4.0386932031
 O         -1.4658566329       -0.9291589642       -2.8985866655
 N          0.2744951000       -1.3856797333       -4.2546733852
 H          0.8522544670       -1.6796226948       -3.4616140623
 H          0.6233580495       -1.5413827683       -5.1826911300
 N         -1.7555277543       -0.7541514136       -5.1271680355
 H         -1.3945182207       -0.8210899893       -6.0606782872
 H         -2.7066570776       -0.4600471425       -4.9999367786
 C         -3.1338256489       -1.1697293315        0.3384210812
 O         -1.9803369966       -0.9300884047        0.6816704056
 N         -4.0692840405       -1.5773795774        1.2363129659
 H         -3.8291466176       -1.5685990016        2.2115313881
 H         -5.0395394484       -1.6557295774        0.9920908097
 N         -3.5553951231       -1.0341966288       -0.9362304509
 H         -4.4606976693       -1.3714213090       -1.2103118231
 H         -2.8629024629       -0.9039555838       -1.6655359105
