  53

 O         -1.8786558229       -1.3312833511       -3.4300664097
 C         -0.6327750772       -0.7646509099       -3.1416107283
 H          0.0418315899       -1.0861067602       -3.9384447895
 H         -0.6877226824        0.3323304246       -3.1759270491
 C         -0.0950827916       -1.1218504116       -1.7511588185
 H         -0.8719273117       -0.8794821433       -1.0247829488
 H          0.7916730497       -0.5218086692       -1.5336206943
 N          0.2964028153       -2.5430694600       -1.5349656758
 C          0.6642836847       -2.6836627653       -0.1149927059
 H          1.4968727920       -2.0107527766        0.0942270934
 H          0.9618378779       -3.7091483340        0.0939919689
 H         -0.1791666919       -2.4157627677        0.5181156411
 C          1.4748123390       -2.8739402355       -2.3525427666
 H          1.2342377547       -2.8081424877       -3.4102672699
 H          1.8057599733       -3.8872041280       -2.1336590640
 H          2.2752341329       -2.1744897755       -2.1134979327
 C         -0.8122764473       -3.4581509444       -1.8452087573
 H         -1.1104867097       -3.3522024326       -2.8864360910
 H         -1.6713062419       -3.2171626071       -1.2216786519
 H         -0.5093944398       -4.4863128021       -1.6555016399
 H         -2.5157668758       -1.0474057857       -2.7518386136
 C          2.9664276298        0.4785920886        0.0736828086
 O          2.6808191986       -0.4747973486       -0.6463350039
 N          2.7090371672        1.7596404498       -0.2640887011
 H          2.1422426177        1.9183250073       -1.0792397685
 H          2.6686967139        2.4634621231        0.4628171387
 N          3.5577435215        0.3060348211        1.2866352035
 H          3.9325423116        1.1048271648        1.7674964236
 H          3.9829745946       -0.5850327408        1.4763338485
 C         -0.9050795774        1.8759620310        0.1370065627
 O         -0.7065123575        0.9009495070        0.8824604855
 N         -1.7923947198        1.8047494478       -0.8762187839
 H         -2.3775567504        0.9779389247       -0.9696569698
 H         -2.0402008786        2.6219518645       -1.4036560890
 N         -0.2209841651        3.0191377756        0.2759209915
 H         -0.4019322651        3.8079414386       -0.3174872868
 H          0.5132196081        3.1001689286        0.9837290410
 C         -3.4929078912       -1.1486861532        0.0828365385
 O         -3.1686810399       -0.6741076807       -1.0083062285
 N         -4.6039647123       -1.9082218762        0.2134713554
 H         -5.2258306953       -1.9755837234       -0.5735305227
 H         -4.9432273865       -2.2082880924        1.1094139950
 N         -2.6982517648       -1.0247802538        1.1675928170
 H         -3.0548385906       -1.2579045950        2.0778182634
 H         -1.9476041375       -0.3233048575        1.1237285142
 C          1.7195038334        2.4300310061        3.1286920422
 O          1.8878376561        3.1000996261        2.1078957002
 N          0.8168514370        1.4389141430        3.1925064503
 H          0.2766347494        1.1964605277        2.3590854075
 H          0.7175534640        0.8778202440        4.0179912772
 N          2.4866513677        2.6368729842        4.2316142808
 H          2.2350665338        2.2383767394        5.1188196909
 H          3.0467301199        3.4724562924        4.2485226171
