 xtb: 6.6.1 (unknown-commit)
          01102415353D

 53 48  0     0  0            999 V2000
   -1.8787   -1.3313   -3.4301 O   0  0  0  0  0  0  0  0  0  0  0  0
   -0.6328   -0.7647   -3.1416 C   0  0  0  0  0  0  0  0  0  0  0  0
    0.0418   -1.0861   -3.9384 H   0  0  0  0  0  0  0  0  0  0  0  0
   -0.6877    0.3323   -3.1759 H   0  0  0  0  0  0  0  0  0  0  0  0
   -0.0951   -1.1219   -1.7512 C   0  0  0  0  0  0  0  0  0  0  0  0
   -0.8719   -0.8795   -1.0248 H   0  0  0  0  0  0  0  0  0  0  0  0
    0.7917   -0.5218   -1.5336 H   0  0  0  0  0  0  0  0  0  0  0  0
    0.2964   -2.5431   -1.5350 N   0  0  0  0  0  0  0  0  0  0  0  0
    0.6643   -2.6837   -0.1150 C   0  0  0  0  0  0  0  0  0  0  0  0
    1.4969   -2.0108    0.0942 H   0  0  0  0  0  0  0  0  0  0  0  0
    0.9618   -3.7092    0.0940 H   0  0  0  0  0  0  0  0  0  0  0  0
   -0.1792   -2.4158    0.5181 H   0  0  0  0  0  0  0  0  0  0  0  0
    1.4748   -2.8740   -2.3525 C   0  0  0  0  0  0  0  0  0  0  0  0
    1.2342   -2.8082   -3.4103 H   0  0  0  0  0  0  0  0  0  0  0  0
    1.8057   -3.8872   -2.1337 H   0  0  0  0  0  0  0  0  0  0  0  0
    2.2752   -2.1745   -2.1135 H   0  0  0  0  0  0  0  0  0  0  0  0
   -0.8123   -3.4581   -1.8452 C   0  0  0  0  0  0  0  0  0  0  0  0
   -1.1105   -3.3522   -2.8864 H   0  0  0  0  0  0  0  0  0  0  0  0
   -1.6713   -3.2172   -1.2217 H   0  0  0  0  0  0  0  0  0  0  0  0
   -0.5094   -4.4863   -1.6555 H   0  0  0  0  0  0  0  0  0  0  0  0
   -2.5158   -1.0474   -2.7518 H   0  0  0  0  0  0  0  0  0  0  0  0
    2.9664    0.4786    0.0737 C   0  0  0  0  0  0  0  0  0  0  0  0
    2.6808   -0.4748   -0.6463 O   0  0  0  0  0  0  0  0  0  0  0  0
    2.7090    1.7596   -0.2641 N   0  0  0  0  0  0  0  0  0  0  0  0
    2.1422    1.9183   -1.0793 H   0  0  0  0  0  0  0  0  0  0  0  0
    2.6687    2.4634    0.4628 H   0  0  0  0  0  0  0  0  0  0  0  0
    3.5577    0.3060    1.2866 N   0  0  0  0  0  0  0  0  0  0  0  0
    3.9326    1.1048    1.7675 H   0  0  0  0  0  0  0  0  0  0  0  0
    3.9830   -0.5851    1.4763 H   0  0  0  0  0  0  0  0  0  0  0  0
   -0.9051    1.8760    0.1370 C   0  0  0  0  0  0  0  0  0  0  0  0
   -0.7065    0.9010    0.8825 O   0  0  0  0  0  0  0  0  0  0  0  0
   -1.7924    1.8048   -0.8762 N   0  0  0  0  0  0  0  0  0  0  0  0
   -2.3776    0.9779   -0.9697 H   0  0  0  0  0  0  0  0  0  0  0  0
   -2.0402    2.6220   -1.4037 H   0  0  0  0  0  0  0  0  0  0  0  0
   -0.2210    3.0191    0.2759 N   0  0  0  0  0  0  0  0  0  0  0  0
   -0.4019    3.8079   -0.3175 H   0  0  0  0  0  0  0  0  0  0  0  0
    0.5132    3.1002    0.9837 H   0  0  0  0  0  0  0  0  0  0  0  0
   -3.4929   -1.1487    0.0829 C   0  0  0  0  0  0  0  0  0  0  0  0
   -3.1687   -0.6741   -1.0083 O   0  0  0  0  0  0  0  0  0  0  0  0
   -4.6040   -1.9082    0.2135 N   0  0  0  0  0  0  0  0  0  0  0  0
   -5.2258   -1.9756   -0.5735 H   0  0  0  0  0  0  0  0  0  0  0  0
   -4.9432   -2.2083    1.1094 H   0  0  0  0  0  0  0  0  0  0  0  0
   -2.6983   -1.0248    1.1676 N   0  0  0  0  0  0  0  0  0  0  0  0
   -3.0548   -1.2579    2.0778 H   0  0  0  0  0  0  0  0  0  0  0  0
   -1.9476   -0.3233    1.1237 H   0  0  0  0  0  0  0  0  0  0  0  0
    1.7195    2.4300    3.1287 C   0  0  0  0  0  0  0  0  0  0  0  0
    1.8879    3.1001    2.1079 O   0  0  0  0  0  0  0  0  0  0  0  0
    0.8169    1.4389    3.1925 N   0  0  0  0  0  0  0  0  0  0  0  0
    0.2766    1.1965    2.3591 H   0  0  0  0  0  0  0  0  0  0  0  0
    0.7176    0.8778    4.0180 H   0  0  0  0  0  0  0  0  0  0  0  0
    2.4867    2.6369    4.2316 N   0  0  0  0  0  0  0  0  0  0  0  0
    2.2351    2.2384    5.1188 H   0  0  0  0  0  0  0  0  0  0  0  0
    3.0468    3.4724    4.2485 H   0  0  0  0  0  0  0  0  0  0  0  0
  1  2  1  0  0  0  0
  2  3  1  0  0  0  0
  2  4  1  0  0  0  0
  2  5  1  0  0  0  0
  5  6  1  0  0  0  0
  5  7  1  0  0  0  0
  5  8  1  0  0  0  0
  8  9  1  0  0  0  0
  9 10  1  0  0  0  0
  9 11  1  0  0  0  0
  9 12  1  0  0  0  0
  8 13  1  0  0  0  0
 13 14  1  0  0  0  0
 13 15  1  0  0  0  0
 13 16  1  0  0  0  0
  8 17  1  0  0  0  0
 17 18  1  0  0  0  0
 17 19  1  0  0  0  0
 17 20  1  0  0  0  0
  1 21  1  0  0  0  0
 22 23  2  0  0  0  0
 22 24  4  0  0  0  0
 24 25  1  0  0  0  0
 24 26  1  0  0  0  0
 22 27  1  0  0  0  0
 27 28  1  0  0  0  0
 27 29  1  0  0  0  0
 30 31  4  0  0  0  0
 30 32  4  0  0  0  0
 32 33  1  0  0  0  0
 32 34  1  0  0  0  0
 30 35  4  0  0  0  0
 35 36  1  0  0  0  0
 35 37  1  0  0  0  0
 38 39  4  0  0  0  0
 38 40  4  0  0  0  0
 40 41  1  0  0  0  0
 40 42  1  0  0  0  0
 38 43  4  0  0  0  0
 43 44  1  0  0  0  0
 43 45  1  0  0  0  0
 46 47  4  0  0  0  0
 46 48  4  0  0  0  0
 48 49  1  0  0  0  0
 48 50  1  0  0  0  0
 46 51  1  0  0  0  0
 51 52  1  0  0  0  0
 51 53  1  0  0  0  0
M  CHG  1   1   1
M  END
