53
 xtb: 6.6.1 (unknown-commit)
O            1.07069953555906        1.32805553772616        0.76729291474801
C           -0.23508011390818        1.67145991643980        0.40638007793226
H           -0.79147774977173        2.02819865402594        1.28564040249655
H           -0.14885658843024        2.51092708864560       -0.28975113252004
C           -1.07127596395352        0.54118881831331       -0.20501285226066
H           -2.00815224254470        0.99529121028253       -0.52924807095014
H           -1.27379206153905       -0.22389444375282        0.54905955842670
N           -0.48925681803782       -0.16366035845189       -1.38172063022719
C           -1.57855192405073       -0.94984862612505       -1.98717349938835
H           -1.98012232521048       -1.62742604631237       -1.23162120958257
H           -1.20372441496886       -1.52113001988693       -2.82498461189495
H           -2.35987311539370       -0.26818236710581       -2.32720726243447
C            0.57784317681579       -1.08837263683447       -0.96693156707233
H            1.43682231748533       -0.54544375266684       -0.57930189825027
H            0.89892609240897       -1.67829420405935       -1.81970380796594
H            0.18375206341964       -1.75503958067657       -0.19919292750820
C            0.02238011884586        0.79241476347460       -2.37199971737515
H            0.32472705785582        0.25860520978147       -3.26739087310042
H            0.88453917981357        1.31931980451533       -1.96995703977821
H           -0.77343132350125        1.49621754409387       -2.61889811416363
H            1.05400044296744        0.59477817648975        1.42781564083353
C            2.13353693981300       -1.24683411303645        2.85575337799236
O            1.06791406428594       -0.72368340275425        2.51230370374933
N            2.22245798635743       -1.92038495411896        4.03360916979384
H            1.47799084855705       -1.81927244442498        4.69366466275843
H            3.11542511890030       -2.22801899117170        4.38587572001471
N            3.24073655394893       -1.20306630959881        2.10663918158411
H            4.06762897584006       -1.70765879050664        2.38173155304860
H            3.22913953485240       -0.83089744208263        1.15557693006093
C           -3.91936031045778        2.56579121050768       -2.66970035086037
O           -2.94144384129309        1.89034721573769       -2.38103149226476
N           -3.88431649811430        3.49962540511024       -3.66133061884204
H           -2.97193156067011        3.81994193305459       -3.96642260654786
H           -4.64615419287181        4.16918967719583       -3.76183386427931
N           -5.11017738589385        2.43466181247926       -2.01182056971235
H           -5.96162131874096        2.82578194013813       -2.43317213963132
H           -5.25675790997671        1.55817080003150       -1.50664447505271
C           -1.94655194138009       -2.73046694637496        1.93751578835502
O           -1.74646952797006       -2.32089956325359        0.80011295598049
N           -1.31689561583416       -2.20908737855628        3.01288005035058
H           -0.51800780532627       -1.59087288378334        2.85508455776152
H           -1.39724717458061       -2.64260824927409        3.91616283567019
N           -2.83033371149117       -3.73177498599148        2.18853218001379
H           -3.09978404654849       -3.97122274791341        3.13386893602207
H           -3.40666592654678       -4.05132221689312        1.44242709281838
C            4.11415298435352        0.83241208916871       -0.79483273934731
O            3.60658333154985       -0.24232740985377       -0.49456298421972
N            3.45402653505347        2.00374387087517       -0.62683863373825
H            2.62356802057878        1.95763536395253       -0.05176847003787
H            3.95196700713316        2.87305652508766       -0.67716051167283
N            5.35348756946653        0.90990132727736       -1.33748420310923
H            5.72058965168607        1.76207153737249       -1.71257193767484
H            5.80805016821614        0.04537194189209       -1.60266712099319
