 xtb: 6.6.1 (unknown-commit)
          01102415403D

 53 48  0     0  0            999 V2000
    1.0764    1.3293    0.7679 O   0  0  0  0  0  0  0  0  0  0  0  0
   -0.2305    1.6743    0.4098 C   0  0  0  0  0  0  0  0  0  0  0  0
   -0.7894    2.0293    1.2869 H   0  0  0  0  0  0  0  0  0  0  0  0
   -0.1476    2.5116   -0.2889 H   0  0  0  0  0  0  0  0  0  0  0  0
   -1.0697    0.5450   -0.1992 C   0  0  0  0  0  0  0  0  0  0  0  0
   -2.0078    0.9967   -0.5268 H   0  0  0  0  0  0  0  0  0  0  0  0
   -1.2731   -0.2226    0.5510 H   0  0  0  0  0  0  0  0  0  0  0  0
   -0.4915   -0.1610   -1.3766 N   0  0  0  0  0  0  0  0  0  0  0  0
   -1.5832   -0.9454   -1.9801 C   0  0  0  0  0  0  0  0  0  0  0  0
   -1.9815   -1.6258   -1.2293 H   0  0  0  0  0  0  0  0  0  0  0  0
   -1.2059   -1.5202   -2.8231 H   0  0  0  0  0  0  0  0  0  0  0  0
   -2.3609   -0.2663   -2.3248 H   0  0  0  0  0  0  0  0  0  0  0  0
    0.5749   -1.0878   -0.9640 C   0  0  0  0  0  0  0  0  0  0  0  0
    1.4365   -0.5457   -0.5790 H   0  0  0  0  0  0  0  0  0  0  0  0
    0.8973   -1.6783   -1.8190 H   0  0  0  0  0  0  0  0  0  0  0  0
    0.1830   -1.7546   -0.1981 H   0  0  0  0  0  0  0  0  0  0  0  0
    0.0202    0.7936   -2.3685 C   0  0  0  0  0  0  0  0  0  0  0  0
    0.3234    0.2587   -3.2665 H   0  0  0  0  0  0  0  0  0  0  0  0
    0.8844    1.3193   -1.9694 H   0  0  0  0  0  0  0  0  0  0  0  0
   -0.7738    1.4969   -2.6177 H   0  0  0  0  0  0  0  0  0  0  0  0
    1.0556    0.5951    1.4280 H   0  0  0  0  0  0  0  0  0  0  0  0
    2.1384   -1.2486    2.8536 C   0  0  0  0  0  0  0  0  0  0  0  0
    1.0742   -0.7225    2.5126 O   0  0  0  0  0  0  0  0  0  0  0  0
    2.2286   -1.9228    4.0309 N   0  0  0  0  0  0  0  0  0  0  0  0
    1.4801   -1.8195    4.6934 H   0  0  0  0  0  0  0  0  0  0  0  0
    3.1170   -2.2294    4.3846 H   0  0  0  0  0  0  0  0  0  0  0  0
    3.2444   -1.2077    2.1019 N   0  0  0  0  0  0  0  0  0  0  0  0
    4.0684   -1.7096    2.3799 H   0  0  0  0  0  0  0  0  0  0  0  0
    3.2298   -0.8321    1.1543 H   0  0  0  0  0  0  0  0  0  0  0  0
   -3.9228    2.5614   -2.6753 C   0  0  0  0  0  0  0  0  0  0  0  0
   -2.9422    1.8960   -2.3742 O   0  0  0  0  0  0  0  0  0  0  0  0
   -3.8580    3.5893   -3.5552 N   0  0  0  0  0  0  0  0  0  0  0  0
   -2.9599    3.8648   -3.9091 H   0  0  0  0  0  0  0  0  0  0  0  0
   -4.6417    4.1898   -3.7333 H   0  0  0  0  0  0  0  0  0  0  0  0
   -5.1481    2.3214   -2.1474 N   0  0  0  0  0  0  0  0  0  0  0  0
   -5.9697    2.7965   -2.4731 H   0  0  0  0  0  0  0  0  0  0  0  0
   -5.2706    1.5112   -1.5670 H   0  0  0  0  0  0  0  0  0  0  0  0
   -1.9483   -2.7216    1.9464 C   0  0  0  0  0  0  0  0  0  0  0  0
   -1.7484   -2.3158    0.8085 O   0  0  0  0  0  0  0  0  0  0  0  0
   -1.3153   -2.1986    3.0198 N   0  0  0  0  0  0  0  0  0  0  0  0
   -0.5170   -1.5890    2.8562 H   0  0  0  0  0  0  0  0  0  0  0  0
   -1.3972   -2.6387    3.9185 H   0  0  0  0  0  0  0  0  0  0  0  0
   -2.8359   -3.7179    2.2027 N   0  0  0  0  0  0  0  0  0  0  0  0
   -3.1013   -3.9662    3.1380 H   0  0  0  0  0  0  0  0  0  0  0  0
   -3.4088   -4.0476    1.4467 H   0  0  0  0  0  0  0  0  0  0  0  0
    4.1148    0.8266   -0.8015 C   0  0  0  0  0  0  0  0  0  0  0  0
    3.6058   -0.2478   -0.5006 O   0  0  0  0  0  0  0  0  0  0  0  0
    3.4577    1.9989   -0.6323 N   0  0  0  0  0  0  0  0  0  0  0  0
    2.6250    1.9568   -0.0526 H   0  0  0  0  0  0  0  0  0  0  0  0
    3.9534    2.8715   -0.6790 H   0  0  0  0  0  0  0  0  0  0  0  0
    5.3528    0.9009   -1.3483 N   0  0  0  0  0  0  0  0  0  0  0  0
    5.7206    1.7594   -1.7158 H   0  0  0  0  0  0  0  0  0  0  0  0
    5.8072    0.0427   -1.6059 H   0  0  0  0  0  0  0  0  0  0  0  0
  1  2  1  0  0  0  0
  2  3  1  0  0  0  0
  2  4  1  0  0  0  0
  2  5  1  0  0  0  0
  5  6  1  0  0  0  0
  5  7  1  0  0  0  0
  5  8  1  0  0  0  0
  8  9  1  0  0  0  0
  9 10  1  0  0  0  0
  9 11  1  0  0  0  0
  9 12  1  0  0  0  0
  8 13  1  0  0  0  0
 13 14  1  0  0  0  0
 13 15  1  0  0  0  0
 13 16  1  0  0  0  0
  8 17  1  0  0  0  0
 17 18  1  0  0  0  0
 17 19  1  0  0  0  0
 17 20  1  0  0  0  0
  1 21  1  0  0  0  0
 22 23  4  0  0  0  0
 22 24  1  0  0  0  0
 24 25  1  0  0  0  0
 24 26  1  0  0  0  0
 22 27  4  0  0  0  0
 27 28  1  0  0  0  0
 27 29  1  0  0  0  0
 30 31  2  0  0  0  0
 30 32  4  0  0  0  0
 32 33  1  0  0  0  0
 32 34  1  0  0  0  0
 30 35  4  0  0  0  0
 35 36  1  0  0  0  0
 35 37  1  0  0  0  0
 38 39  2  0  0  0  0
 38 40  4  0  0  0  0
 40 41  1  0  0  0  0
 40 42  1  0  0  0  0
 38 43  1  0  0  0  0
 43 44  1  0  0  0  0
 43 45  1  0  0  0  0
 46 47  2  0  0  0  0
 46 48  4  0  0  0  0
 48 49  1  0  0  0  0
 48 50  1  0  0  0  0
 46 51  4  0  0  0  0
 51 52  1  0  0  0  0
 51 53  1  0  0  0  0
M  CHG  1   1   1
M  END
