  53

 O          1.4564147047       -0.5876999987        2.0461502812
 C          0.1657658810       -0.1590708060        1.7154411195
 H         -0.4034789122       -0.1351480445        2.6480593266
 H          0.1885142660        0.8632570976        1.3147017997
 C         -0.5131473661       -1.0063159954        0.6384255622
 H          0.1793317658       -1.0638917991       -0.2038331359
 H         -1.4371632785       -0.5146450743        0.3265115015
 N         -0.8709747664       -2.4036216174        1.0110992867
 C          0.3193552229       -3.1552757304        1.4376158873
 H          1.0932153725       -3.0678373055        0.6753565866
 H          0.0642101944       -4.2021361291        1.5905142318
 H          0.7132528651       -2.7374786107        2.3616899461
 C         -1.4481588093       -3.0335665641       -0.1883320785
 H         -0.7131887107       -3.0411621694       -0.9901210215
 H         -2.3223532174       -2.4625072362       -0.4989238930
 H         -1.7448152418       -4.0572337598        0.0320081424
 C         -1.8900494560       -2.4103808424        2.0711173764
 H         -1.4934527171       -1.9687966523        2.9813311871
 H         -2.1961356440       -3.4327486966        2.2840916383
 H         -2.7516019013       -1.8374108678        1.7279844093
 H          1.9316500419       -0.7709248634        1.2123287597
 C          3.5152259121       -1.3356994769       -0.7806936920
 O          2.3692068962       -1.5912807639       -0.4104775145
 N          4.0685847551       -0.1203304032       -0.6338274805
 H          3.4848240012        0.6683934836       -0.3673762466
 H          4.9638159144        0.0851908211       -1.0395898898
 N          4.2904354867       -2.2839017524       -1.3707002994
 H          5.2689556835       -2.1272338832       -1.5327678444
 H          3.9732000127       -3.2369783791       -1.3507776562
 C          2.0039386540        2.9901970381        0.5800855492
 O          2.4073273086        2.1192763571       -0.1970931990
 N          2.8593111958        3.6387709498        1.4016263831
 H          3.8312861738        3.3885815572        1.3865461573
 H          2.5518875193        4.3311956316        2.0588533430
 N          0.7093514948        3.3348128959        0.6508102603
 H          0.3960746699        4.0696157728        1.2575064477
 H          0.0275884165        2.8598041716        0.0566620691
 C         -0.6154973668        1.1728412251       -1.8655563222
 O         -1.0762678518        1.7891353428       -0.8966933315
 N          0.6956557074        1.1263650468       -2.1197534625
 H          1.3541780260        1.5260839441       -1.4410822338
 H          1.0597596190        0.5790401232       -2.8777105605
 N         -1.4315690370        0.4723226178       -2.6959259763
 H         -1.0964349500        0.1229915077       -3.5755208426
 H         -2.4249100966        0.5846717123       -2.5863837019
 C         -4.2835787042        0.2580224129       -0.0729591369
 O         -3.5387867353       -0.7095318700        0.0603639333
 N         -5.6062266612        0.1778368535        0.2246851808
 H         -5.9942618453       -0.7254180293        0.4311895420
 H         -6.2437055785        0.9195194697       -0.0015894962
 N         -3.8465428146        1.4487702688       -0.5334333751
 H         -4.4416102826        2.2564515781       -0.4805144542
 H         -2.8385242608        1.6139215818       -0.5902821768
