  53

 O         -2.2974023137       -1.3060474529       -0.7543190820
 C         -1.1546392813       -0.9001218451       -1.4655826610
 H         -1.1864716038       -1.4109675243       -2.4328885629
 H         -1.1792629844        0.1776199585       -1.6595789243
 C          0.1736412208       -1.1762058806       -0.7494701944
 H          0.2272851747       -0.6089093548        0.1806366809
 H          0.9842362250       -0.8293847730       -1.3953230945
 N          0.4460272355       -2.5966970694       -0.3887290399
 C         -0.3655075594       -2.9718457830        0.7820148013
 H         -0.0781374978       -2.3431863204        1.6233902865
 H         -0.1919517583       -4.0149794354        1.0384744910
 H         -1.4193808691       -2.8191380903        0.5570739930
 C          1.8703254532       -2.7051018397       -0.0250632586
 H          2.0556235718       -2.0634093580        0.8365198373
 H          2.4959555424       -2.3696619045       -0.8492107794
 H          2.1135675286       -3.7340406052        0.2300346749
 C          0.1580023672       -3.5021563412       -1.5092568228
 H         -0.9100050159       -3.5168405615       -1.7147528898
 H          0.4776016984       -4.5123367027       -1.2587075957
 H          0.6968829458       -3.1725533841       -2.3956994578
 H         -2.5846404711       -0.5794676571       -0.1562047046
 C          2.3510510386        0.3201906958        2.0846932323
 O          1.4181608731       -0.4871536064        2.0582937727
 N          2.5664798915        1.1002458089        3.1684882099
 H          1.9027263014        1.0756072964        3.9216916026
 H          3.2393761268        1.8440607171        3.1571536737
 N          3.2673740338        0.4041016123        1.0982230374
 H          3.9020810234        1.1833324415        1.1047849725
 H          3.0354007120        0.0406859191        0.1782445545
 C          3.0602822684        0.9050442652       -2.2782624398
 O          2.8599014285       -0.1786480404       -1.7271318530
 N          3.7528009595        0.9775864609       -3.4450920369
 H          4.2262589995        0.1504306462       -3.7629402636
 H          4.0451199768        1.8580122593       -3.8287820152
 N          2.5858654781        2.0621690199       -1.7903236781
 H          2.7482011290        2.9292848661       -2.2687537701
 H          2.0022892782        2.0782495281       -0.9527618370
 C         -0.2849892697        1.9790412747        0.6005495537
 O          0.9156098738        2.1911329325        0.4599542196
 N         -1.2112066674        2.4476191545       -0.2848006014
 H         -0.9498795780        3.2104796889       -0.8847169101
 H         -2.1866724167        2.3376757560       -0.0602919881
 N         -0.7875352295        1.2416695160        1.6125252859
 H         -1.7649843461        0.9964556515        1.6001693276
 H         -0.1427428170        0.6483274906        2.1196987065
 C         -4.7072383338        0.4711930693        0.6324404409
 O         -3.4909376986        0.6656973459        0.6894216409
 N         -5.2298285811       -0.5190414192       -0.1165479728
 H         -4.6049758301       -1.0978447289       -0.6534614929
 H         -6.2185921414       -0.6725004522       -0.1891776856
 N         -5.5789530904        1.2480098676        1.3074863561
 H         -6.5665055664        1.0703816826        1.3082833409
 H         -5.2220661494        1.9626832995        1.9165491223
