  53

 O         -2.0888376261       -1.8483586953        2.1510104997
 C         -2.7787562329       -2.7171708699        1.3051296608
 H         -3.4040352076       -3.3544758196        1.9366948212
 H         -3.4447584032       -2.1597288466        0.6344380992
 C         -1.8674642973       -3.5581577188        0.3929454692
 H         -1.2369213849       -2.8906196579       -0.2020401172
 H         -2.5051079775       -4.1369065928       -0.2772011749
 N         -0.9433482754       -4.5032508449        1.0842765781
 C          0.1048168090       -3.7437485356        1.7899471469
 H          0.6836353128       -3.1903932466        1.0507930626
 H          0.7582527530       -4.4254349466        2.3296478944
 H         -0.3585049655       -3.0430516044        2.4824023775
 C         -0.2991369892       -5.3394784386        0.0554089459
 H          0.2153464489       -4.6898698267       -0.6525874907
 H         -1.0418099349       -5.9366313753       -0.4695369283
 H          0.4267184259       -6.0044915659        0.5190839719
 C         -1.6599059809       -5.3621178333        2.0390627940
 H         -2.0146862839       -4.7720530998        2.8809860762
 H         -0.9892045720       -6.1326523789        2.4156656758
 H         -2.5076080643       -5.8418044099        1.5524434639
 H         -1.7625169163       -1.1018634598        1.5894199663
 C          1.1939472105       -1.6756315668       -1.5611513330
 O          0.8642885467       -2.7191023267       -1.0042076927
 N          0.3759182078       -0.6178331729       -1.6974334147
 H         -0.4342189919       -0.5783852270       -1.0817233380
 H          0.7991744743        0.2826964576       -1.9021184382
 N          2.4596280902       -1.5092576692       -2.0738157799
 H          2.5904444512       -0.7846058213       -2.7620905592
 H          2.9866179237       -2.3539986144       -2.2312999137
 C          0.2744599549        5.1715934597       -1.0281555938
 O         -0.0209394608        4.6275724734        0.0438104202
 N          0.0379705189        6.4856036242       -1.2275799688
 H         -0.4233927697        7.0052788407       -0.5024934811
 H          0.2227997565        6.9391900223       -2.1031456333
 N          0.8213209758        4.4797595558       -2.0409251450
 H          1.1389349681        4.9406925412       -2.8739340111
 H          1.1186540590        3.5156814560       -1.8734450853
 C          2.1282195477        1.7780644377       -0.1973882920
 O          1.6607351989        1.8741450955       -1.3369249865
 N          1.9237153662        2.7152637638        0.7413564596
 H          1.2559856635        3.4651537354        0.5591224785
 H          2.2635560983        2.5957097986        1.6776810671
 N          2.8709540118        0.7045441001        0.1626162559
 H          3.3237582020        0.6541578641        1.0562433350
 H          3.0825429079        0.0005200720       -0.5267718752
 C         -1.3106223203        1.2364746026        0.5859602978
 O         -1.4187828772        0.0196893314        0.3828096265
 N         -1.2603189339        1.7416750355        1.8415344603
 H         -1.5226997383        1.1505641031        2.6115019293
 H         -1.2944731976        2.7377042378        1.9732384198
 N         -1.2309246017        2.1297142620       -0.4097500714
 H         -0.9204525929        3.0797197459       -0.2166688533
 H         -1.1007215311        1.7849952861       -1.3454631812
