  53

 O         -1.1498244516       -0.0517654587       -2.6065355288
 C         -0.8225201193       -1.4083703579       -2.6186551268
 H         -1.6177870164       -1.9150538016       -3.1730810925
 H          0.1193031339       -1.5809752383       -3.1597948446
 C         -0.6352620760       -2.0397136104       -1.2293211151
 H          0.2135394269       -1.5760347505       -0.7180593132
 H         -0.4154497217       -3.0984409248       -1.3808204123
 N         -1.7911291206       -1.9330439005       -0.2998526743
 C         -1.9083082119       -0.5593553012        0.2208914559
 H         -2.7456769556       -0.5239577603        0.9147289872
 H         -2.0718842276        0.1332483492       -0.6010144731
 H         -0.9853535640       -0.3047396171        0.7396303588
 C         -1.5444275582       -2.8236998083        0.8476011575
 H         -2.3649543406       -2.7103118142        1.5543038984
 H         -0.6047067460       -2.5386081837        1.3179500913
 H         -1.4908091215       -3.8591450990        0.5178914871
 C         -3.0583009258       -2.3114654632       -0.9412660212
 H         -3.8395759843       -2.3098461015       -0.1817777978
 H         -2.9779730057       -3.3048312908       -1.3786768963
 H         -3.3139176058       -1.5914535125       -1.7146931163
 H         -0.3766607730        0.4501759866       -2.2450702613
 C          2.1267908124       -0.5617483208        1.2819150217
 O          1.0514759831       -1.1488116936        1.2091029900
 N          2.3856554124        0.5688729443        0.5865237537
 H          1.7801792715        0.7767039970       -0.2066656821
 H          3.3394719262        0.8874889680        0.4674541518
 N          3.1184732059       -0.9908018674        2.1035091999
 H          3.9677681605       -0.4690258391        2.2184457049
 H          2.9314763738       -1.7501949399        2.7327449254
 C          4.1406678380        3.4368066385        0.5305911239
 O          4.3708118941        2.4719346857       -0.1924675279
 N          4.9362363135        4.5318101272        0.5337928047
 H          5.7954597564        4.4896304267        0.0144525506
 H          4.8305725054        5.2639464631        1.2122264401
 N          3.0752467434        3.4661037054        1.3632628499
 H          2.8249648402        4.2910214574        1.8765673370
 H          2.4158274601        2.7046138727        1.3085518433
 C          1.7518074531        1.6100747683       -2.7983451547
 O          1.0938010234        1.1892284282       -1.8399404589
 N          1.2463695453        1.5583585979       -4.0545392000
 H          0.2834303680        1.2882624394       -4.1697755765
 H          1.7100164119        1.9988308947       -4.8280326694
 N          2.9877123873        2.1079514475       -2.6605368433
 H          3.5194341412        2.4013690683       -3.4595822254
 H          3.4462555360        2.1301050576       -1.7532902257
 C         -5.3423136372       -1.8831109898        2.6105526640
 O         -4.3864575687       -1.8873793581        1.8479589102
 N         -6.3709194799       -1.0118248647        2.4736872547
 H         -6.2976968936       -0.2880714665        1.7815564706
 H         -7.1045240288       -0.9422128378        3.1546194383
 N         -5.4453454224       -2.7511140585        3.6455117053
 H         -6.2713929697       -2.8102546044        4.2118602586
 H         -4.7555544007       -3.4747584131        3.7377951670
