53
 xtb: 6.6.1 (unknown-commit)
O           -0.27360483633789        0.80809505163475        2.70853642265412
C           -1.52748476478197        0.67378580288927        2.10462875924468
H           -2.24682345294343        0.49849628794827        2.90731793667666
H           -1.82448345121967        1.60671022682433        1.59723295028261
C           -1.62269797861873       -0.42923176200248        1.03855277694578
H           -0.98105943660170       -0.18690438635950        0.18869191372796
H           -2.66433155468987       -0.47709404985166        0.71465353600380
N           -1.24110017098020       -1.80047093011083        1.47775929165451
C            0.21823257905696       -1.89650933217166        1.64310422499910
H            0.69362039397688       -1.67201373664381        0.69414427624120
H            0.48955363017599       -2.90005488751192        1.96246617149501
H            0.54838188052058       -1.17600226394477        2.39652543074054
C           -1.66197492948938       -2.73436248837881        0.41935934919876
H           -1.17445656646707       -2.45549111699381       -0.50901916585037
H           -2.74143651610106       -2.68978884183493        0.31631117652363
H           -1.36519542192083       -3.74932305132631        0.68980660717618
C           -1.92169976327558       -2.15970720140881        2.72991439490905
H           -1.56421914144052       -1.53131821452941        3.54678240819089
H           -1.72252361245508       -3.19819176916652        2.97589321634629
H           -2.99534492776526       -2.01840889551272        2.59435199237580
H            0.36146301227984        1.12210713872147        2.01526726258579
C            0.88723343993319       -0.42037641377219       -2.16897644772555
O            0.32611511751408       -1.22402340117777       -1.43663745593723
N            1.08459204459091        0.86955121631752       -1.85372866118587
H            1.00954605208060        1.12569654546923       -0.87418041437707
H            1.79644896972336        1.38368414204875       -2.35955177053892
N            1.38074951664550       -0.79955805523158       -3.40914548683863
H            1.43496487111038       -0.09081190138465       -4.11019812497807
H            1.03228210818337       -1.69431440442398       -3.74015655902709
C            2.21083419536010        2.57658437881173        1.07961143356874
O            1.40650308233622        1.67756031566843        0.81461489770945
N            3.12890861213206        3.00574622820791        0.20196004587854
H            3.19117299641698        2.60348242008474       -0.73280965135807
H            3.74609683786107        3.76349087518308        0.42330639117947
N            2.19809032405181        3.17205519047971        2.29439622176102
H            2.84820299396928        3.89533394559875        2.54129612365060
H            1.53320796730545        2.86236710329959        2.97569272938715
C            4.56111988298803        1.17044675805906       -2.80409770980752
O            3.65255963093994        1.90536167522528       -2.42818023584641
N            4.34320394966029       -0.09676651310333       -3.21609282460152
H            3.41683923240627       -0.49558854218788       -3.14332183839850
H            5.10863921654860       -0.71384667268403       -3.43935673782821
N            5.85282916300900        1.58552719241150       -2.81074551783969
H            6.57466698451131        1.04876235330317       -3.26036956107236
H            6.02942109820942        2.56187824036472       -2.65849731601860
C           -5.76493460607426       -1.54701313358667        0.93857350075897
O           -4.55767579820549       -1.63495297484374        1.11236039002787
N           -6.66063009388885       -1.84263312505896        1.92358450707170
H           -6.31949077459555       -2.24395575294441        2.77205648838203
H           -7.64417473845836       -1.78115368694153        1.77455284290067
N           -6.29642036764373       -1.14473301399489       -0.25318896802227
H           -7.28290453995339       -1.06141130853683       -0.38229503270117
H           -5.68053821047084       -0.82119713355308       -0.96324220337638
