 xtb: 6.6.1 (unknown-commit)
          01102415343D

 53 48  0     0  0            999 V2000
   -2.0624   -0.3524   -1.4043 O   0  0  0  0  0  0  0  0  0  0  0  0
   -0.7293   -0.0727   -1.7388 C   0  0  0  0  0  0  0  0  0  0  0  0
   -0.6117   -0.3500   -2.7883 H   0  0  0  0  0  0  0  0  0  0  0  0
   -0.5292    1.0005   -1.6592 H   0  0  0  0  0  0  0  0  0  0  0  0
    0.2718   -0.7911   -0.8271 C   0  0  0  0  0  0  0  0  0  0  0  0
   -0.1882   -0.8823    0.1592 H   0  0  0  0  0  0  0  0  0  0  0  0
    1.1935   -0.2099   -0.7496 H   0  0  0  0  0  0  0  0  0  0  0  0
    0.6650   -2.1655   -1.2401 N   0  0  0  0  0  0  0  0  0  0  0  0
   -0.5229   -3.0057   -1.4457 C   0  0  0  0  0  0  0  0  0  0  0  0
   -1.0745   -3.0554   -0.5081 H   0  0  0  0  0  0  0  0  0  0  0  0
   -0.2249   -4.0075   -1.7483 H   0  0  0  0  0  0  0  0  0  0  0  0
   -1.1706   -2.5751   -2.2047 H   0  0  0  0  0  0  0  0  0  0  0  0
    1.4715   -2.7248   -0.1417 C   0  0  0  0  0  0  0  0  0  0  0  0
    0.8628   -2.7711    0.7599 H   0  0  0  0  0  0  0  0  0  0  0  0
    2.3330   -2.0800    0.0241 H   0  0  0  0  0  0  0  0  0  0  0  0
    1.8109   -3.7261   -0.3989 H   0  0  0  0  0  0  0  0  0  0  0  0
    1.4931   -2.1202   -2.4540 C   0  0  0  0  0  0  0  0  0  0  0  0
    2.3464   -1.4681   -2.2679 H   0  0  0  0  0  0  0  0  0  0  0  0
    0.9220   -1.7358   -3.2949 H   0  0  0  0  0  0  0  0  0  0  0  0
    1.8461   -3.1197   -2.7003 H   0  0  0  0  0  0  0  0  0  0  0  0
   -2.2208    0.0119   -0.5184 H   0  0  0  0  0  0  0  0  0  0  0  0
   -1.0159    0.8029    2.0908 C   0  0  0  0  0  0  0  0  0  0  0  0
   -1.9176    0.8528    1.2382 O   0  0  0  0  0  0  0  0  0  0  0  0
   -1.2440    0.2949    3.3222 N   0  0  0  0  0  0  0  0  0  0  0  0
   -2.1010   -0.2089    3.4759 H   0  0  0  0  0  0  0  0  0  0  0  0
   -0.4800    0.1078    3.9465 H   0  0  0  0  0  0  0  0  0  0  0  0
    0.2179    1.2582    1.8358 N   0  0  0  0  0  0  0  0  0  0  0  0
    0.9085    1.2977    2.5631 H   0  0  0  0  0  0  0  0  0  0  0  0
    0.3912    1.7863    0.9752 H   0  0  0  0  0  0  0  0  0  0  0  0
   -0.4018    3.4887   -0.7646 C   0  0  0  0  0  0  0  0  0  0  0  0
    0.5742    2.8006   -0.4450 O   0  0  0  0  0  0  0  0  0  0  0  0
   -0.2564    4.5848   -1.5431 N   0  0  0  0  0  0  0  0  0  0  0  0
    0.6663    4.8626   -1.8245 H   0  0  0  0  0  0  0  0  0  0  0  0
   -1.0300    5.1756   -1.7860 H   0  0  0  0  0  0  0  0  0  0  0  0
   -1.6484    3.1769   -0.3798 N   0  0  0  0  0  0  0  0  0  0  0  0
   -2.4361    3.7397   -0.6429 H   0  0  0  0  0  0  0  0  0  0  0  0
   -1.8105    2.3494    0.1936 H   0  0  0  0  0  0  0  0  0  0  0  0
   -2.5602   -2.5347    1.7265 C   0  0  0  0  0  0  0  0  0  0  0  0
   -1.3656   -2.3947    1.4909 O   0  0  0  0  0  0  0  0  0  0  0  0
   -3.4064   -1.4843    1.8471 N   0  0  0  0  0  0  0  0  0  0  0  0
   -3.0642   -0.5770    1.5337 H   0  0  0  0  0  0  0  0  0  0  0  0
   -4.3997   -1.6340    1.8251 H   0  0  0  0  0  0  0  0  0  0  0  0
   -3.1154   -3.7658    1.8879 N   0  0  0  0  0  0  0  0  0  0  0  0
   -4.0539   -3.8723    2.2290 H   0  0  0  0  0  0  0  0  0  0  0  0
   -2.4981   -4.5528    1.9859 H   0  0  0  0  0  0  0  0  0  0  0  0
    3.9169    0.9266   -0.8057 C   0  0  0  0  0  0  0  0  0  0  0  0
    3.2349   -0.0915   -0.8628 O   0  0  0  0  0  0  0  0  0  0  0  0
    5.2719    0.8650   -0.7250 N   0  0  0  0  0  0  0  0  0  0  0  0
    5.7132   -0.0304   -0.8360 H   0  0  0  0  0  0  0  0  0  0  0  0
    5.8456    1.6835   -0.8151 H   0  0  0  0  0  0  0  0  0  0  0  0
    3.3847    2.1659   -0.8196 N   0  0  0  0  0  0  0  0  0  0  0  0
    3.9655    2.9689   -0.6589 H   0  0  0  0  0  0  0  0  0  0  0  0
    2.3826    2.2933   -0.7432 H   0  0  0  0  0  0  0  0  0  0  0  0
  1  2  1  0  0  0  0
  2  3  1  0  0  0  0
  2  4  1  0  0  0  0
  2  5  1  0  0  0  0
  5  6  1  0  0  0  0
  5  7  1  0  0  0  0
  5  8  1  0  0  0  0
  8  9  1  0  0  0  0
  9 10  1  0  0  0  0
  9 11  1  0  0  0  0
  9 12  1  0  0  0  0
  8 13  1  0  0  0  0
 13 14  1  0  0  0  0
 13 15  1  0  0  0  0
 13 16  1  0  0  0  0
  8 17  1  0  0  0  0
 17 18  1  0  0  0  0
 17 19  1  0  0  0  0
 17 20  1  0  0  0  0
  1 21  1  0  0  0  0
 22 23  4  0  0  0  0
 22 24  4  0  0  0  0
 24 25  1  0  0  0  0
 24 26  1  0  0  0  0
 22 27  4  0  0  0  0
 27 28  1  0  0  0  0
 27 29  1  0  0  0  0
 30 31  4  0  0  0  0
 30 32  4  0  0  0  0
 32 33  1  0  0  0  0
 32 34  1  0  0  0  0
 30 35  4  0  0  0  0
 35 36  1  0  0  0  0
 35 37  1  0  0  0  0
 38 39  2  0  0  0  0
 38 40  4  0  0  0  0
 40 41  1  0  0  0  0
 40 42  1  0  0  0  0
 38 43  1  0  0  0  0
 43 44  1  0  0  0  0
 43 45  1  0  0  0  0
 46 47  2  0  0  0  0
 46 48  1  0  0  0  0
 48 49  1  0  0  0  0
 48 50  1  0  0  0  0
 46 51  4  0  0  0  0
 51 52  1  0  0  0  0
 51 53  1  0  0  0  0
M  CHG  1   1   1
M  END
