  53

 O         -0.3496956962       -0.6408773948        2.1569257245
 C         -0.7976755563        0.2925848937        1.2034363515
 H         -1.8833237310        0.3494058982        1.3104875170
 H         -0.3749484430        1.2820461235        1.4328515503
 C         -0.3797224224       -0.0377537107       -0.2271308603
 H          0.6691790118       -0.3454735052       -0.1939721830
 H         -0.4691817457        0.8548339217       -0.8476827055
 N         -1.1417280775       -1.1212784227       -0.9064631391
 C         -1.2383125414       -2.3173564834       -0.0548298342
 H         -0.2493425469       -2.5809454291        0.3150338653
 H         -1.6484581422       -3.1451809592       -0.6296246167
 H         -1.9038904470       -2.1086784017        0.7821008829
 C         -0.4078927556       -1.4599815068       -2.1358452979
 H          0.5788292821       -1.8416622492       -1.8795837540
 H         -0.2944540608       -0.5720578389       -2.7539714482
 H         -0.9476303719       -2.2202036032       -2.6977042982
 C         -2.4922299510       -0.6522798917       -1.2574741055
 H         -3.0816455243       -0.5142725703       -0.3526340069
 H         -2.9903969919       -1.3958017276       -1.8762442571
 H         -2.4236805339        0.2860976318       -1.8045739078
 H          0.5202070587       -0.9811836003        1.8785308376
 C          3.1146077893       -1.6638386524        0.9476259241
 O          1.8889215877       -1.7273828505        0.8706063601
 N          3.8004791879       -0.5637882784        0.5794597144
 H          3.3073747605        0.1835823300        0.0908791154
 H          4.8020725536       -0.5885975092        0.5116105861
 N          3.8449245355       -2.7052268024        1.4153128622
 H          4.8309690057       -2.6296600772        1.5863608872
 H          3.3567174449       -3.4908730669        1.8070905614
 C          1.9880029566        2.5311359170       -0.0199134395
 O          2.3860402301        1.5543898254       -0.6633824675
 N          2.6163002593        2.9244886300        1.1128442708
 H          3.4734643186        2.4706935838        1.3736345046
 H          2.3620618989        3.7674847576        1.5943327911
 N          0.9070615099        3.2340649189       -0.3894209576
 H          0.5833144418        4.0204189791        0.1429737316
 H          0.3506300403        2.9185302074       -1.1838910919
 C          0.2823756379        1.9304637685       -3.5226602615
 O         -0.4826573830        2.0953037485       -2.5700457464
 N          1.5322882039        1.4566462436       -3.3510950943
 H          1.9007216380        1.4171108588       -2.3980248854
 H          2.1889867999        1.4500649076       -4.1106428665
 N         -0.1321551782        2.1236806681       -4.7976389687
 H          0.5065814706        2.1063659594       -5.5718340488
 H         -1.0373441875        2.5356909391       -4.9418907955
 C         -3.7896858390       -1.3195880655        2.7851171451
 O         -3.6448508346       -1.1042435123        1.5876130912
 N         -5.0182535624       -1.3841602817        3.3573398968
 H         -5.8198041002       -1.3759391666        2.7518598148
 H         -5.1450013576       -1.7000295877        4.3015122755
 N         -2.7350209533       -1.5169073104        3.6099683913
 H         -2.8588752249       -1.5409411055        4.6059142668
 H         -1.8115040028       -1.3013433224        3.2547977549
