 xtb: 6.6.1 (unknown-commit)
          01102418273D

 53 48  0     0  0            999 V2000
   -0.3497   -0.6409    2.1569 O   0  0  0  0  0  0  0  0  0  0  0  0
   -0.7977    0.2926    1.2034 C   0  0  0  0  0  0  0  0  0  0  0  0
   -1.8833    0.3494    1.3105 H   0  0  0  0  0  0  0  0  0  0  0  0
   -0.3749    1.2821    1.4329 H   0  0  0  0  0  0  0  0  0  0  0  0
   -0.3797   -0.0378   -0.2271 C   0  0  0  0  0  0  0  0  0  0  0  0
    0.6692   -0.3455   -0.1940 H   0  0  0  0  0  0  0  0  0  0  0  0
   -0.4692    0.8548   -0.8477 H   0  0  0  0  0  0  0  0  0  0  0  0
   -1.1417   -1.1213   -0.9065 N   0  0  0  0  0  0  0  0  0  0  0  0
   -1.2383   -2.3174   -0.0548 C   0  0  0  0  0  0  0  0  0  0  0  0
   -0.2494   -2.5809    0.3150 H   0  0  0  0  0  0  0  0  0  0  0  0
   -1.6485   -3.1452   -0.6296 H   0  0  0  0  0  0  0  0  0  0  0  0
   -1.9039   -2.1087    0.7821 H   0  0  0  0  0  0  0  0  0  0  0  0
   -0.4079   -1.4600   -2.1358 C   0  0  0  0  0  0  0  0  0  0  0  0
    0.5788   -1.8417   -1.8796 H   0  0  0  0  0  0  0  0  0  0  0  0
   -0.2945   -0.5721   -2.7540 H   0  0  0  0  0  0  0  0  0  0  0  0
   -0.9477   -2.2202   -2.6977 H   0  0  0  0  0  0  0  0  0  0  0  0
   -2.4922   -0.6523   -1.2575 C   0  0  0  0  0  0  0  0  0  0  0  0
   -3.0816   -0.5143   -0.3526 H   0  0  0  0  0  0  0  0  0  0  0  0
   -2.9904   -1.3958   -1.8762 H   0  0  0  0  0  0  0  0  0  0  0  0
   -2.4237    0.2861   -1.8046 H   0  0  0  0  0  0  0  0  0  0  0  0
    0.5202   -0.9812    1.8785 H   0  0  0  0  0  0  0  0  0  0  0  0
    3.1146   -1.6639    0.9476 C   0  0  0  0  0  0  0  0  0  0  0  0
    1.8889   -1.7274    0.8706 O   0  0  0  0  0  0  0  0  0  0  0  0
    3.8005   -0.5638    0.5794 N   0  0  0  0  0  0  0  0  0  0  0  0
    3.3074    0.1836    0.0909 H   0  0  0  0  0  0  0  0  0  0  0  0
    4.8021   -0.5886    0.5116 H   0  0  0  0  0  0  0  0  0  0  0  0
    3.8449   -2.7052    1.4153 N   0  0  0  0  0  0  0  0  0  0  0  0
    4.8310   -2.6297    1.5863 H   0  0  0  0  0  0  0  0  0  0  0  0
    3.3567   -3.4909    1.8071 H   0  0  0  0  0  0  0  0  0  0  0  0
    1.9880    2.5311   -0.0199 C   0  0  0  0  0  0  0  0  0  0  0  0
    2.3860    1.5544   -0.6634 O   0  0  0  0  0  0  0  0  0  0  0  0
    2.6163    2.9245    1.1128 N   0  0  0  0  0  0  0  0  0  0  0  0
    3.4735    2.4707    1.3736 H   0  0  0  0  0  0  0  0  0  0  0  0
    2.3621    3.7675    1.5943 H   0  0  0  0  0  0  0  0  0  0  0  0
    0.9071    3.2341   -0.3894 N   0  0  0  0  0  0  0  0  0  0  0  0
    0.5833    4.0204    0.1430 H   0  0  0  0  0  0  0  0  0  0  0  0
    0.3506    2.9185   -1.1839 H   0  0  0  0  0  0  0  0  0  0  0  0
    0.2824    1.9305   -3.5227 C   0  0  0  0  0  0  0  0  0  0  0  0
   -0.4827    2.0953   -2.5700 O   0  0  0  0  0  0  0  0  0  0  0  0
    1.5323    1.4566   -3.3511 N   0  0  0  0  0  0  0  0  0  0  0  0
    1.9007    1.4171   -2.3980 H   0  0  0  0  0  0  0  0  0  0  0  0
    2.1890    1.4500   -4.1107 H   0  0  0  0  0  0  0  0  0  0  0  0
   -0.1322    2.1237   -4.7976 N   0  0  0  0  0  0  0  0  0  0  0  0
    0.5066    2.1064   -5.5718 H   0  0  0  0  0  0  0  0  0  0  0  0
   -1.0373    2.5357   -4.9419 H   0  0  0  0  0  0  0  0  0  0  0  0
   -3.7897   -1.3196    2.7851 C   0  0  0  0  0  0  0  0  0  0  0  0
   -3.6449   -1.1042    1.5876 O   0  0  0  0  0  0  0  0  0  0  0  0
   -5.0182   -1.3841    3.3574 N   0  0  0  0  0  0  0  0  0  0  0  0
   -5.8198   -1.3759    2.7519 H   0  0  0  0  0  0  0  0  0  0  0  0
   -5.1450   -1.7000    4.3015 H   0  0  0  0  0  0  0  0  0  0  0  0
   -2.7350   -1.5169    3.6100 N   0  0  0  0  0  0  0  0  0  0  0  0
   -2.8589   -1.5409    4.6059 H   0  0  0  0  0  0  0  0  0  0  0  0
   -1.8115   -1.3013    3.2548 H   0  0  0  0  0  0  0  0  0  0  0  0
  1  2  1  0  0  0  0
  2  3  1  0  0  0  0
  2  4  1  0  0  0  0
  2  5  1  0  0  0  0
  5  6  1  0  0  0  0
  5  7  1  0  0  0  0
  5  8  1  0  0  0  0
  8  9  1  0  0  0  0
  9 10  1  0  0  0  0
  9 11  1  0  0  0  0
  9 12  1  0  0  0  0
  8 13  1  0  0  0  0
 13 14  1  0  0  0  0
 13 15  1  0  0  0  0
 13 16  1  0  0  0  0
  8 17  1  0  0  0  0
 17 18  1  0  0  0  0
 17 19  1  0  0  0  0
 17 20  1  0  0  0  0
  1 21  1  0  0  0  0
 22 23  2  0  0  0  0
 22 24  4  0  0  0  0
 24 25  1  0  0  0  0
 24 26  1  0  0  0  0
 22 27  4  0  0  0  0
 27 28  1  0  0  0  0
 27 29  1  0  0  0  0
 30 31  4  0  0  0  0
 30 32  4  0  0  0  0
 32 33  1  0  0  0  0
 32 34  1  0  0  0  0
 30 35  4  0  0  0  0
 35 36  1  0  0  0  0
 35 37  1  0  0  0  0
 38 39  4  0  0  0  0
 38 40  4  0  0  0  0
 40 41  1  0  0  0  0
 40 42  1  0  0  0  0
 38 43  4  0  0  0  0
 43 44  1  0  0  0  0
 43 45  1  0  0  0  0
 46 47  2  0  0  0  0
 46 48  1  0  0  0  0
 48 49  1  0  0  0  0
 48 50  1  0  0  0  0
 46 51  4  0  0  0  0
 51 52  1  0  0  0  0
 51 53  1  0  0  0  0
M  CHG  1   1   1
M  END
