53
 xtb: 6.6.1 (unknown-commit)
O            0.38726918369078       -0.63612165747791       -1.51278554519929
C            0.73981732704276       -1.89988080883508       -1.03302320524312
H            0.58198597892562       -2.61454900008318       -1.84304776040250
H            1.81287926068948       -1.94111530034838       -0.76575087539209
C           -0.01628128857158       -2.32990044550945        0.23413869368029
H            0.17268104810794       -1.60747025507957        1.03949454248420
H            0.37157259439671       -3.30559290392013        0.54637110206680
N           -1.49456903792741       -2.43860173602087        0.10861899493628
C           -2.01626124919846       -3.05813255563503        1.33957589439096
H           -1.72232571619451       -2.44593811662698        2.19264363710464
H           -1.62507449887894       -4.06388929648095        1.45815913062669
H           -3.10407695509355       -3.09822398164878        1.27284281858046
C           -1.89975541644785       -3.25336038426951       -1.04556986972279
H           -2.97683646717884       -3.38331978926998       -1.01135968253639
H           -1.41186297807895       -4.23297155432697       -1.00083494467235
H           -1.62527631430488       -2.75764374623953       -1.96938080922533
C           -2.10104923186258       -1.10158762846443       -0.01195796373163
H           -1.70478064436355       -0.60296739332262       -0.89749727082013
H           -1.85054353909582       -0.52546201113568        0.87212735295098
H           -3.17708139642720       -1.22121737939826       -0.09857882297137
H            0.68849382597222        0.02347564913291       -0.83787861215343
C            5.51136484019023        4.26440775427879       -2.46020266096770
O            4.77508038097160        3.51447375849888       -1.83390790256226
N            5.11339500702922        4.88097828063031       -3.59979672986721
H            4.14537005825073        4.80717924141160       -3.86909836284145
H            5.66984185216764        5.58331788102272       -4.04632105282034
N            6.77689195859040        4.53423480112271       -2.05737114598730
H            7.41724290424713        5.04236552513589       -2.64242951652706
H            7.15380609819408        4.00355431230131       -1.29714385880455
C            2.34179762244627        1.73001249279311       -0.30631614847396
O            1.46948887323549        1.04512404406914        0.25024707232176
N            2.50469327086913        1.73982393823053       -1.63830417485009
H            1.93177525113595        1.14788714541244       -2.21639010492446
H            3.25530422564987        2.28595451222876       -2.03543085838904
N            3.17541320095480        2.53233657550560        0.38091962687758
H            3.90065405874238        3.02271397698856       -0.12092833446469
H            3.16675334277147        2.52600896006344        1.38254282309990
C           -6.06037896043018       -2.83007492337681       -0.12402169094128
O           -4.83962841301255       -2.80205853113001       -0.07769168663160
N           -6.82421963991036       -1.78650120043296        0.31343004359385
H           -6.35498708959327       -1.02802480552688        0.78186128757898
H           -7.81101194100848       -1.81102070575639        0.29953769669583
N           -6.74176655909062       -3.90448893438132       -0.61737102673299
H           -7.74387812938549       -3.91040967106761       -0.64715294843606
H           -6.23522332431239       -4.64252979565642       -1.03472392593068
C           -0.26350910763654        0.29348510721455        3.41818257653306
O           -0.68674722175835       -0.65032638839173        2.76032841269642
N           -0.73255068997542        0.55047050616309        4.67146926218743
H           -1.32276348789549       -0.13450188827175        5.10102709942197
H           -0.27599574414221        1.21326094508741        5.27331143237417
N            0.68170895813547        1.13546146767861        2.95530344059089
H            0.88111329538881        1.98892291195080        3.44991862846343
H            0.94501893645756        1.08200070943576        1.96968271641103
