 xtb: 6.6.1 (unknown-commit)
          01102415403D

 53 48  0     0  0            999 V2000
    0.3989   -0.6480   -1.5097 O   0  0  0  0  0  0  0  0  0  0  0  0
    0.7474   -1.9081   -1.0232 C   0  0  0  0  0  0  0  0  0  0  0  0
    0.5852   -2.6180   -1.8395 H   0  0  0  0  0  0  0  0  0  0  0  0
    1.8147   -1.9432   -0.7615 H   0  0  0  0  0  0  0  0  0  0  0  0
   -0.0145   -2.3323    0.2424 C   0  0  0  0  0  0  0  0  0  0  0  0
    0.1722   -1.6072    1.0412 H   0  0  0  0  0  0  0  0  0  0  0  0
    0.3716   -3.3059    0.5505 H   0  0  0  0  0  0  0  0  0  0  0  0
   -1.4920   -2.4413    0.1110 N   0  0  0  0  0  0  0  0  0  0  0  0
   -2.0195   -3.0556    1.3419 C   0  0  0  0  0  0  0  0  0  0  0  0
   -1.7245   -2.4442    2.1930 H   0  0  0  0  0  0  0  0  0  0  0  0
   -1.6261   -4.0630    1.4606 H   0  0  0  0  0  0  0  0  0  0  0  0
   -3.1049   -3.0978    1.2720 H   0  0  0  0  0  0  0  0  0  0  0  0
   -1.8926   -3.2604   -1.0419 C   0  0  0  0  0  0  0  0  0  0  0  0
   -2.9748   -3.3852   -1.0114 H   0  0  0  0  0  0  0  0  0  0  0  0
   -1.4099   -4.2350   -0.9980 H   0  0  0  0  0  0  0  0  0  0  0  0
   -1.6220   -2.7608   -1.9685 H   0  0  0  0  0  0  0  0  0  0  0  0
   -2.0976   -1.1044   -0.0180 C   0  0  0  0  0  0  0  0  0  0  0  0
   -1.7025   -0.6048   -0.8993 H   0  0  0  0  0  0  0  0  0  0  0  0
   -1.8507   -0.5253    0.8701 H   0  0  0  0  0  0  0  0  0  0  0  0
   -3.1760   -1.2219   -0.1018 H   0  0  0  0  0  0  0  0  0  0  0  0
    0.6905    0.0213   -0.8376 H   0  0  0  0  0  0  0  0  0  0  0  0
    5.5102    4.2621   -2.4642 C   0  0  0  0  0  0  0  0  0  0  0  0
    4.7750    3.5128   -1.8359 O   0  0  0  0  0  0  0  0  0  0  0  0
    5.1121    4.8722   -3.6075 N   0  0  0  0  0  0  0  0  0  0  0  0
    4.1452    4.8038   -3.8715 H   0  0  0  0  0  0  0  0  0  0  0  0
    5.6692    5.5808   -4.0491 H   0  0  0  0  0  0  0  0  0  0  0  0
    6.7743    4.5371   -2.0612 N   0  0  0  0  0  0  0  0  0  0  0  0
    7.4164    5.0429   -2.6438 H   0  0  0  0  0  0  0  0  0  0  0  0
    7.1532    4.0056   -1.2973 H   0  0  0  0  0  0  0  0  0  0  0  0
    2.3426    1.7284   -0.3070 C   0  0  0  0  0  0  0  0  0  0  0  0
    1.4709    1.0430    0.2500 O   0  0  0  0  0  0  0  0  0  0  0  0
    2.5093    1.7328   -1.6386 N   0  0  0  0  0  0  0  0  0  0  0  0
    1.9340    1.1448   -2.2162 H   0  0  0  0  0  0  0  0  0  0  0  0
    3.2565    2.2842   -2.0356 H   0  0  0  0  0  0  0  0  0  0  0  0
    3.1719    2.5361    0.3790 N   0  0  0  0  0  0  0  0  0  0  0  0
    3.8997    3.0237   -0.1214 H   0  0  0  0  0  0  0  0  0  0  0  0
    3.1650    2.5282    1.3820 H   0  0  0  0  0  0  0  0  0  0  0  0
   -6.0569   -2.8292   -0.1225 C   0  0  0  0  0  0  0  0  0  0  0  0
   -4.8351   -2.8083   -0.0870 O   0  0  0  0  0  0  0  0  0  0  0  0
   -6.8121   -1.8651    0.4578 N   0  0  0  0  0  0  0  0  0  0  0  0
   -6.3501   -1.0644    0.8499 H   0  0  0  0  0  0  0  0  0  0  0  0
   -7.8082   -1.8277    0.3436 H   0  0  0  0  0  0  0  0  0  0  0  0
   -6.7462   -3.8156   -0.7454 N   0  0  0  0  0  0  0  0  0  0  0  0
   -7.7450   -3.8880   -0.6826 H   0  0  0  0  0  0  0  0  0  0  0  0
   -6.2378   -4.6051   -1.1013 H   0  0  0  0  0  0  0  0  0  0  0  0
   -0.2740    0.3037    3.4153 C   0  0  0  0  0  0  0  0  0  0  0  0
   -0.6991   -0.6401    2.7594 O   0  0  0  0  0  0  0  0  0  0  0  0
   -0.7464    0.5666    4.6664 N   0  0  0  0  0  0  0  0  0  0  0  0
   -1.3267   -0.1297    5.1001 H   0  0  0  0  0  0  0  0  0  0  0  0
   -0.2795    1.2177    5.2717 H   0  0  0  0  0  0  0  0  0  0  0  0
    0.6726    1.1434    2.9515 N   0  0  0  0  0  0  0  0  0  0  0  0
    0.8789    1.9913    3.4484 H   0  0  0  0  0  0  0  0  0  0  0  0
    0.9434    1.0831    1.9690 H   0  0  0  0  0  0  0  0  0  0  0  0
  1  2  1  0  0  0  0
  2  3  1  0  0  0  0
  2  4  1  0  0  0  0
  2  5  1  0  0  0  0
  5  6  1  0  0  0  0
  5  7  1  0  0  0  0
  5  8  1  0  0  0  0
  8  9  1  0  0  0  0
  9 10  1  0  0  0  0
  9 11  1  0  0  0  0
  9 12  1  0  0  0  0
  8 13  1  0  0  0  0
 13 14  1  0  0  0  0
 13 15  1  0  0  0  0
 13 16  1  0  0  0  0
  8 17  1  0  0  0  0
 17 18  1  0  0  0  0
 17 19  1  0  0  0  0
 17 20  1  0  0  0  0
  1 21  1  0  0  0  0
 22 23  2  0  0  0  0
 22 24  4  0  0  0  0
 24 25  1  0  0  0  0
 24 26  1  0  0  0  0
 22 27  4  0  0  0  0
 27 28  1  0  0  0  0
 27 29  1  0  0  0  0
 30 31  4  0  0  0  0
 30 32  4  0  0  0  0
 32 33  1  0  0  0  0
 32 34  1  0  0  0  0
 30 35  4  0  0  0  0
 35 36  1  0  0  0  0
 35 37  1  0  0  0  0
 38 39  2  0  0  0  0
 38 40  4  0  0  0  0
 40 41  1  0  0  0  0
 40 42  1  0  0  0  0
 38 43  4  0  0  0  0
 43 44  1  0  0  0  0
 43 45  1  0  0  0  0
 46 47  2  0  0  0  0
 46 48  1  0  0  0  0
 48 49  1  0  0  0  0
 48 50  1  0  0  0  0
 46 51  4  0  0  0  0
 51 52  1  0  0  0  0
 51 53  1  0  0  0  0
M  CHG  1   1   1
M  END
