 xtb: 6.6.1 (unknown-commit)
          01102415333D

 53 48  0     0  0            999 V2000
   -1.1891   -0.0194   -2.6294 O   0  0  0  0  0  0  0  0  0  0  0  0
    0.1451    0.0822   -2.2170 C   0  0  0  0  0  0  0  0  0  0  0  0
    0.7624   -0.1866   -3.0773 H   0  0  0  0  0  0  0  0  0  0  0  0
    0.3894    1.1160   -1.9438 H   0  0  0  0  0  0  0  0  0  0  0  0
    0.4700   -0.7723   -0.9860 C   0  0  0  0  0  0  0  0  0  0  0  0
   -0.3192   -0.6180   -0.2454 H   0  0  0  0  0  0  0  0  0  0  0  0
    1.4235   -0.4445   -0.5692 H   0  0  0  0  0  0  0  0  0  0  0  0
    0.5755   -2.2414   -1.2070 N   0  0  0  0  0  0  0  0  0  0  0  0
    0.8762   -2.8645    0.0953 C   0  0  0  0  0  0  0  0  0  0  0  0
    1.8250   -2.4815    0.4655 H   0  0  0  0  0  0  0  0  0  0  0  0
    0.9376   -3.9451   -0.0161 H   0  0  0  0  0  0  0  0  0  0  0  0
    0.0834   -2.6170    0.7996 H   0  0  0  0  0  0  0  0  0  0  0  0
    1.6729   -2.5523   -2.1340 C   0  0  0  0  0  0  0  0  0  0  0  0
    1.4507   -2.1839   -3.1323 H   0  0  0  0  0  0  0  0  0  0  0  0
    1.8175   -3.6299   -2.1879 H   0  0  0  0  0  0  0  0  0  0  0  0
    2.5879   -2.0887   -1.7683 H   0  0  0  0  0  0  0  0  0  0  0  0
   -0.6981   -2.7732   -1.7143 C   0  0  0  0  0  0  0  0  0  0  0  0
   -0.9929   -2.2452   -2.6191 H   0  0  0  0  0  0  0  0  0  0  0  0
   -1.4671   -2.6197   -0.9596 H   0  0  0  0  0  0  0  0  0  0  0  0
   -0.6052   -3.8375   -1.9215 H   0  0  0  0  0  0  0  0  0  0  0  0
   -1.7311    0.4724   -1.9825 H   0  0  0  0  0  0  0  0  0  0  0  0
    4.0508    0.1749    0.3836 C   0  0  0  0  0  0  0  0  0  0  0  0
    3.2374   -0.7540    0.4384 O   0  0  0  0  0  0  0  0  0  0  0  0
    3.6701    1.4564    0.4742 N   0  0  0  0  0  0  0  0  0  0  0  0
    2.6874    1.6801    0.6525 H   0  0  0  0  0  0  0  0  0  0  0  0
    4.3404    2.2029    0.4662 H   0  0  0  0  0  0  0  0  0  0  0  0
    5.3682   -0.0638    0.1695 N   0  0  0  0  0  0  0  0  0  0  0  0
    6.0527    0.6665    0.2442 H   0  0  0  0  0  0  0  0  0  0  0  0
    5.6916   -1.0143    0.2039 H   0  0  0  0  0  0  0  0  0  0  0  0
   -1.9458    2.8362   -0.8434 C   0  0  0  0  0  0  0  0  0  0  0  0
   -2.1274    1.6258   -0.6667 O   0  0  0  0  0  0  0  0  0  0  0  0
   -2.8143    3.5672   -1.5797 N   0  0  0  0  0  0  0  0  0  0  0  0
   -3.5941    3.1055   -2.0122 H   0  0  0  0  0  0  0  0  0  0  0  0
   -2.6747    4.5435   -1.7634 H   0  0  0  0  0  0  0  0  0  0  0  0
   -0.9098    3.4883   -0.2957 N   0  0  0  0  0  0  0  0  0  0  0  0
   -0.7410    4.4561   -0.5018 H   0  0  0  0  0  0  0  0  0  0  0  0
   -0.1736    2.9569    0.1824 H   0  0  0  0  0  0  0  0  0  0  0  0
   -2.8696   -1.4152    1.3713 C   0  0  0  0  0  0  0  0  0  0  0  0
   -1.6477   -1.5462    1.3534 O   0  0  0  0  0  0  0  0  0  0  0  0
   -3.6789   -2.3977    1.8479 N   0  0  0  0  0  0  0  0  0  0  0  0
   -3.2540   -3.1684    2.3334 H   0  0  0  0  0  0  0  0  0  0  0  0
   -4.6587   -2.2397    2.0007 H   0  0  0  0  0  0  0  0  0  0  0  0
   -3.4841   -0.3019    0.9248 N   0  0  0  0  0  0  0  0  0  0  0  0
   -4.4836   -0.2759    0.8311 H   0  0  0  0  0  0  0  0  0  0  0  0
   -2.9499    0.3825    0.3973 H   0  0  0  0  0  0  0  0  0  0  0  0
    0.4045    1.0636    1.7565 C   0  0  0  0  0  0  0  0  0  0  0  0
    0.9483    1.8819    1.0022 O   0  0  0  0  0  0  0  0  0  0  0  0
   -0.8255    1.2834    2.2727 N   0  0  0  0  0  0  0  0  0  0  0  0
   -1.3711    2.0325    1.8825 H   0  0  0  0  0  0  0  0  0  0  0  0
   -1.3300    0.5104    2.6698 H   0  0  0  0  0  0  0  0  0  0  0  0
    1.0306   -0.0535    2.1636 N   0  0  0  0  0  0  0  0  0  0  0  0
    0.5087   -0.7631    2.6457 H   0  0  0  0  0  0  0  0  0  0  0  0
    1.8939   -0.3236    1.7012 H   0  0  0  0  0  0  0  0  0  0  0  0
  1  2  1  0  0  0  0
  2  3  1  0  0  0  0
  2  4  1  0  0  0  0
  2  5  1  0  0  0  0
  5  6  1  0  0  0  0
  5  7  1  0  0  0  0
  5  8  1  0  0  0  0
  8  9  1  0  0  0  0
  9 10  1  0  0  0  0
  9 11  1  0  0  0  0
  9 12  1  0  0  0  0
  8 13  1  0  0  0  0
 13 14  1  0  0  0  0
 13 15  1  0  0  0  0
 13 16  1  0  0  0  0
  8 17  1  0  0  0  0
 17 18  1  0  0  0  0
 17 19  1  0  0  0  0
 17 20  1  0  0  0  0
  1 21  1  0  0  0  0
 22 23  4  0  0  0  0
 22 24  4  0  0  0  0
 24 25  1  0  0  0  0
 24 26  1  0  0  0  0
 22 27  4  0  0  0  0
 27 28  1  0  0  0  0
 27 29  1  0  0  0  0
 30 31  4  0  0  0  0
 30 32  4  0  0  0  0
 32 33  1  0  0  0  0
 32 34  1  0  0  0  0
 30 35  4  0  0  0  0
 35 36  1  0  0  0  0
 35 37  1  0  0  0  0
 38 39  2  0  0  0  0
 38 40  1  0  0  0  0
 40 41  1  0  0  0  0
 40 42  1  0  0  0  0
 38 43  4  0  0  0  0
 43 44  1  0  0  0  0
 43 45  1  0  0  0  0
 46 47  4  0  0  0  0
 46 48  4  0  0  0  0
 48 49  1  0  0  0  0
 48 50  1  0  0  0  0
 46 51  4  0  0  0  0
 51 52  1  0  0  0  0
 51 53  1  0  0  0  0
M  CHG  1   1   1
M  END
