  53

 O         -1.3153850775       -2.6001623313        1.3162175611
 C          0.0540011246       -2.9045610066        1.3341040301
 H          0.1569439850       -3.9561528590        1.6288099996
 H          0.5052255673       -2.7848133440        0.3480865967
 C          0.8536858600       -2.0942184454        2.3737739650
 H          1.8940036094       -2.4137618708        2.2902734005
 H          0.4874449093       -2.3396189015        3.3726314084
 N          0.8012643121       -0.6155317279        2.2251017886
 C          1.9153608594       -0.0106048450        2.9750163684
 H          1.8888141149       -0.3266433528        4.0161310374
 H          1.8164757818        1.0737683845        2.9185264808
 H          2.8659933454       -0.3060617030        2.5359520458
 C         -0.4619040777       -0.0863781376        2.7694748154
 H         -0.5057171484       -0.2554605188        3.8436236754
 H         -1.3041778043       -0.5891520575        2.3000013253
 H         -0.4984731652        0.9841469353        2.5710516137
 C          0.9141919715       -0.1996436057        0.8171603415
 H          1.7656460058       -0.6773641577        0.3375761531
 H          1.0256238281        0.8841311170        0.7941696609
 H          0.0118438299       -0.4671595904        0.2740251580
 H         -1.5242961904       -2.0936218810        0.5045351736
 C          1.2312580311       -2.9688077149       -2.2566762083
 O          1.7798891278       -2.0497097489       -1.6582692618
 N         -0.1128257143       -3.1400563211       -2.2423384717
 H         -0.6956734010       -2.4210335326       -1.8388346263
 H         -0.5535725818       -3.8199739493       -2.8345121693
 N          1.9367920989       -3.8904542073       -2.9532693885
 H          1.5055406765       -4.6857463744       -3.3867351729
 H          2.9395034920       -3.8435837835       -2.9291165536
 C          0.5161064811        3.8466630172        1.6641441002
 O          0.7393645361        2.6722686735        1.9447065722
 N          0.1374978112        4.2408072519        0.4328410457
 H         -0.1272989673        3.5379150271       -0.2567185680
 H         -0.1717074229        5.1831272189        0.2750689708
 N          0.6449412080        4.8305502742        2.5933355717
 H          0.5962983503        5.8011412082        2.3421474342
 H          1.0549394058        4.5984167432        3.4803294164
 C          0.4928537181        1.6025719353       -1.9064256914
 O         -0.4651307585        2.2765546549       -1.5084717386
 N          0.3552896135        0.3203689938       -2.2874119327
 H         -0.5064211474       -0.1347433131       -2.0061587313
 H          1.1579687547       -0.2956955068       -2.3086369735
 N          1.7389530384        2.1273517059       -1.9781589812
 H          2.4753762938        1.6191994563       -2.4341180198
 H          1.8482662173        3.1205332642       -1.8689574288
 C         -2.8371019540       -0.3642770503       -0.8394843080
 O         -1.7767867357       -1.0172260656       -0.8542245408
 N         -2.8626450826        0.9406311974       -1.1095233420
 H         -1.9911597744        1.4560231615       -1.2952791199
 H         -3.7252766208        1.4535913532       -1.1013041750
 N         -4.0027712475       -0.9696887879       -0.5271874233
 H         -4.8774976865       -0.4782554981       -0.5292781372
 H         -4.0068839977       -1.9539620713       -0.3253181026
