 xtb: 6.6.1 (unknown-commit)
          01102418303D

 53 48  0     0  0            999 V2000
   -1.3154   -2.6002    1.3162 O   0  0  0  0  0  0  0  0  0  0  0  0
    0.0540   -2.9046    1.3341 C   0  0  0  0  0  0  0  0  0  0  0  0
    0.1569   -3.9562    1.6288 H   0  0  0  0  0  0  0  0  0  0  0  0
    0.5052   -2.7848    0.3481 H   0  0  0  0  0  0  0  0  0  0  0  0
    0.8537   -2.0942    2.3738 C   0  0  0  0  0  0  0  0  0  0  0  0
    1.8940   -2.4138    2.2903 H   0  0  0  0  0  0  0  0  0  0  0  0
    0.4874   -2.3396    3.3726 H   0  0  0  0  0  0  0  0  0  0  0  0
    0.8013   -0.6155    2.2251 N   0  0  0  0  0  0  0  0  0  0  0  0
    1.9154   -0.0106    2.9750 C   0  0  0  0  0  0  0  0  0  0  0  0
    1.8888   -0.3266    4.0161 H   0  0  0  0  0  0  0  0  0  0  0  0
    1.8165    1.0738    2.9185 H   0  0  0  0  0  0  0  0  0  0  0  0
    2.8660   -0.3061    2.5359 H   0  0  0  0  0  0  0  0  0  0  0  0
   -0.4619   -0.0864    2.7695 C   0  0  0  0  0  0  0  0  0  0  0  0
   -0.5057   -0.2555    3.8436 H   0  0  0  0  0  0  0  0  0  0  0  0
   -1.3042   -0.5891    2.3000 H   0  0  0  0  0  0  0  0  0  0  0  0
   -0.4985    0.9842    2.5711 H   0  0  0  0  0  0  0  0  0  0  0  0
    0.9142   -0.1996    0.8172 C   0  0  0  0  0  0  0  0  0  0  0  0
    1.7656   -0.6774    0.3376 H   0  0  0  0  0  0  0  0  0  0  0  0
    1.0256    0.8841    0.7942 H   0  0  0  0  0  0  0  0  0  0  0  0
    0.0118   -0.4672    0.2740 H   0  0  0  0  0  0  0  0  0  0  0  0
   -1.5243   -2.0936    0.5045 H   0  0  0  0  0  0  0  0  0  0  0  0
    1.2312   -2.9688   -2.2567 C   0  0  0  0  0  0  0  0  0  0  0  0
    1.7799   -2.0497   -1.6583 O   0  0  0  0  0  0  0  0  0  0  0  0
   -0.1128   -3.1401   -2.2423 N   0  0  0  0  0  0  0  0  0  0  0  0
   -0.6957   -2.4210   -1.8388 H   0  0  0  0  0  0  0  0  0  0  0  0
   -0.5536   -3.8200   -2.8345 H   0  0  0  0  0  0  0  0  0  0  0  0
    1.9368   -3.8905   -2.9533 N   0  0  0  0  0  0  0  0  0  0  0  0
    1.5055   -4.6858   -3.3867 H   0  0  0  0  0  0  0  0  0  0  0  0
    2.9395   -3.8436   -2.9291 H   0  0  0  0  0  0  0  0  0  0  0  0
    0.5161    3.8467    1.6641 C   0  0  0  0  0  0  0  0  0  0  0  0
    0.7394    2.6723    1.9447 O   0  0  0  0  0  0  0  0  0  0  0  0
    0.1375    4.2408    0.4328 N   0  0  0  0  0  0  0  0  0  0  0  0
   -0.1273    3.5379   -0.2567 H   0  0  0  0  0  0  0  0  0  0  0  0
   -0.1717    5.1831    0.2751 H   0  0  0  0  0  0  0  0  0  0  0  0
    0.6450    4.8306    2.5933 N   0  0  0  0  0  0  0  0  0  0  0  0
    0.5963    5.8011    2.3421 H   0  0  0  0  0  0  0  0  0  0  0  0
    1.0550    4.5984    3.4803 H   0  0  0  0  0  0  0  0  0  0  0  0
    0.4929    1.6026   -1.9064 C   0  0  0  0  0  0  0  0  0  0  0  0
   -0.4651    2.2766   -1.5085 O   0  0  0  0  0  0  0  0  0  0  0  0
    0.3553    0.3204   -2.2874 N   0  0  0  0  0  0  0  0  0  0  0  0
   -0.5064   -0.1347   -2.0062 H   0  0  0  0  0  0  0  0  0  0  0  0
    1.1580   -0.2957   -2.3086 H   0  0  0  0  0  0  0  0  0  0  0  0
    1.7390    2.1273   -1.9782 N   0  0  0  0  0  0  0  0  0  0  0  0
    2.4754    1.6192   -2.4341 H   0  0  0  0  0  0  0  0  0  0  0  0
    1.8483    3.1205   -1.8690 H   0  0  0  0  0  0  0  0  0  0  0  0
   -2.8371   -0.3643   -0.8395 C   0  0  0  0  0  0  0  0  0  0  0  0
   -1.7768   -1.0172   -0.8542 O   0  0  0  0  0  0  0  0  0  0  0  0
   -2.8626    0.9406   -1.1095 N   0  0  0  0  0  0  0  0  0  0  0  0
   -1.9912    1.4560   -1.2953 H   0  0  0  0  0  0  0  0  0  0  0  0
   -3.7253    1.4536   -1.1013 H   0  0  0  0  0  0  0  0  0  0  0  0
   -4.0028   -0.9697   -0.5272 N   0  0  0  0  0  0  0  0  0  0  0  0
   -4.8775   -0.4782   -0.5293 H   0  0  0  0  0  0  0  0  0  0  0  0
   -4.0069   -1.9539   -0.3253 H   0  0  0  0  0  0  0  0  0  0  0  0
  1  2  1  0  0  0  0
  2  3  1  0  0  0  0
  2  4  1  0  0  0  0
  2  5  1  0  0  0  0
  5  6  1  0  0  0  0
  5  7  1  0  0  0  0
  5  8  1  0  0  0  0
  8  9  1  0  0  0  0
  9 10  1  0  0  0  0
  9 11  1  0  0  0  0
  9 12  1  0  0  0  0
  8 13  1  0  0  0  0
 13 14  1  0  0  0  0
 13 15  1  0  0  0  0
 13 16  1  0  0  0  0
  8 17  1  0  0  0  0
 17 18  1  0  0  0  0
 17 19  1  0  0  0  0
 17 20  1  0  0  0  0
  1 21  1  0  0  0  0
 22 23  2  0  0  0  0
 22 24  4  0  0  0  0
 24 25  1  0  0  0  0
 24 26  1  0  0  0  0
 22 27  4  0  0  0  0
 27 28  1  0  0  0  0
 27 29  1  0  0  0  0
 30 31  2  0  0  0  0
 30 32  4  0  0  0  0
 32 33  1  0  0  0  0
 32 34  1  0  0  0  0
 30 35  1  0  0  0  0
 35 36  1  0  0  0  0
 35 37  1  0  0  0  0
 38 39  4  0  0  0  0
 38 40  4  0  0  0  0
 40 41  1  0  0  0  0
 40 42  1  0  0  0  0
 38 43  4  0  0  0  0
 43 44  1  0  0  0  0
 43 45  1  0  0  0  0
 46 47  4  0  0  0  0
 46 48  4  0  0  0  0
 48 49  1  0  0  0  0
 48 50  1  0  0  0  0
 46 51  4  0  0  0  0
 51 52  1  0  0  0  0
 51 53  1  0  0  0  0
M  CHG  1   1   1
M  END
