  53

 O         -2.9455052431       -0.0751577993        2.0314810736
 C         -2.3113802441       -0.8116362616        3.0318045857
 H         -2.0704892811       -0.1091715642        3.8345242329
 H         -2.9953212203       -1.5671094011        3.4498541165
 C         -1.0756775613       -1.5833374786        2.5474883734
 H         -1.3857091473       -2.1627660457        1.6739618204
 H         -0.7552319422       -2.2622128597        3.3401622972
 N          0.0980130142       -0.7687014752        2.1347506876
 C         -0.2564302692        0.1760186604        1.0614406220
 H         -0.7042486684       -0.3664564676        0.2306096038
 H          0.6445699608        0.6901884278        0.7325513991
 H         -0.9815346057        0.9005309554        1.4226624748
 C          1.1320226855       -1.6833231183        1.6198276494
 H          0.7604167747       -2.2036945673        0.7396059066
 H          1.4038296132       -2.4128839236        2.3803290260
 H          2.0092587260       -1.0969389626        1.3514247375
 C          0.6666812055       -0.0142499643        3.2614470449
 H          0.9211694654       -0.6869584083        4.0784329556
 H         -0.0414665755        0.7297771024        3.6164893249
 H          1.5682173556        0.4900321173        2.9133650908
 H         -3.0031122456       -0.6371747104        1.2318857703
 C          1.1608007080       -1.1524621615       -1.9896917596
 O          0.0355863473       -0.9805959254       -2.4652641076
 N          1.9184305094       -0.1389161904       -1.5589563559
 H          1.4999933341        0.7943324209       -1.4956916442
 H          2.7622175309       -0.2978240542       -1.0370967607
 N          1.6688955189       -2.4130606143       -1.8341841120
 H          2.6592589736       -2.5255381149       -1.6980009330
 H          1.2132447775       -3.1459410772       -2.3535191308
 C          3.5542294234        1.8292378014        1.0244399071
 O          2.9435103994        0.7754745916        1.1932873741
 N          3.0166537072        2.8809509215        0.3776397895
 H          2.1509436227        2.7523934139       -0.1358655041
 H          3.5820242590        3.6768495673        0.1427566455
 N          4.8127159437        1.9984624158        1.5038351199
 H          5.2818105297        2.8846136138        1.4635958114
 H          5.2079805274        1.2813392095        2.0850544096
 C         -0.3946941720        2.5513991948       -1.7285857284
 O          0.6903995002        2.3272278374       -1.1823525849
 N         -1.0900844890        1.5896006064       -2.3493248376
 H         -0.6923929376        0.6512862450       -2.4328612111
 H         -1.9486478676        1.7940200228       -2.8259960528
 N         -0.9457784884        3.7871008384       -1.6955137513
 H         -1.8086707791        4.0014598804       -2.1597051852
 H         -0.4398829239        4.5341437776       -1.2556977430
 C         -3.1106410049       -2.1006594449       -1.1263322461
 O         -2.5133880131       -1.7635553451       -0.1040269953
 N         -4.4425589157       -2.3577167577       -1.1109328086
 H         -4.9203682978       -2.3772169371       -0.2274627554
 H         -4.9142341874       -2.7465589896       -1.9069403605
 N         -2.4811752209       -2.2436222532       -2.3056656143
 H         -3.0023587905       -2.4055939191       -3.1485175385
 H         -1.5362854488       -1.8759987198       -2.3960111810
