  53

 O         -0.2083938312        1.1166563147        2.4196023075
 C         -1.3787416946        1.2364544067        1.6641378048
 H         -2.1808272002        1.4813385520        2.3652434477
 H         -1.2979731432        2.0697246424        0.9530673456
 C         -1.7411795415       -0.0017434673        0.8302718319
 H         -0.9516241923       -0.2070338058        0.1022257554
 H         -2.6759872850        0.2172225014        0.3115459122
 N         -1.9512641578       -1.2663084091        1.5895583308
 C         -0.6692288190       -1.7683477567        2.1088088805
 H         -0.8288970475       -2.6909918274        2.6628827233
 H         -0.2199820276       -1.0211196584        2.7595833142
 H         -0.0078040199       -1.9615664437        1.2646451150
 C         -2.5031050196       -2.2540282349        0.6457661413
 H         -1.8103242516       -2.3714227529       -0.1860244725
 H         -3.4674446808       -1.8996311914        0.2868000365
 H         -2.6314709377       -3.2119802030        1.1451834280
 C         -2.9071608976       -1.0723653672        2.6885691678
 H         -3.8200322247       -0.6378772215        2.2817262043
 H         -2.4824090597       -0.4183200268        3.4457489792
 H         -3.1387659697       -2.0324056936        3.1460030178
 H          0.5587011376        1.0836252660        1.7955537620
 C          4.4566008936        1.1457001222       -2.8289093687
 O          4.6249995950        0.3700828298       -1.8925475935
 N          5.4949567086        1.7549092575       -3.4462936294
 H          6.4252461423        1.4732204205       -3.1915670487
 H          5.3759302467        2.2924172164       -4.2854927800
 N          3.2224816250        1.4404927139       -3.2975650045
 H          3.0728532835        2.1479201911       -3.9930509982
 H          2.4286026969        1.0690665889       -2.7994512929
 C          2.9975688529        1.3197518540        1.4019072867
 O          1.9382339255        1.0717292604        0.8141646629
 N          4.1952495142        1.1689902368        0.8197851784
 H          4.2758628522        0.8166556174       -0.1300952816
 H          5.0433332875        1.3472006953        1.3257881622
 N          2.9875885638        1.7535155934        2.6830178105
 H          3.8273140211        2.0116770038        3.1672113933
 H          2.1021532378        1.9089904777        3.1337558506
 C          1.2453067123       -1.7961700746       -1.4562031022
 O          0.1640113136       -1.8873994321       -0.8818540551
 N          1.7142821261       -2.7918154797       -2.2510859348
 H          1.1218003647       -3.5784525466       -2.4452188523
 H          2.5641679475       -2.6889522958       -2.7743456069
 N          2.0227431625       -0.6939430312       -1.3730895887
 H          2.9997466285       -0.7402786918       -1.6363974018
 H          1.8320546431       -0.0468509530       -0.6087616793
 C         -5.9652012110        0.2102230959       -0.0089570269
 O         -4.8985276285       -0.1696682622        0.4529844852
 N         -6.1919330252        0.2735952141       -1.3440145201
 H         -5.4998172566       -0.1062477892       -1.9647743856
 H         -7.1019377146        0.4708335623       -1.7182663231
 N         -6.9970781708        0.5996128473        0.7775604434
 H         -7.8340696049        1.0018511188        0.3975120334
 H         -6.8500394022        0.6647779441        1.7686609426
