  53

 O          0.3280990747       -2.3225382134       -1.2615736800
 C          0.3034952712       -0.9312801091       -1.4126876709
 H          1.2688393873       -0.6304719756       -1.8247617314
 H         -0.4688681025       -0.6306190270       -2.1323254359
 C         -0.0058505064       -0.1677382818       -0.1149051442
 H         -0.9872044704       -0.4709025911        0.2524197303
 H         -0.0191304369        0.8943152279       -0.3571340172
 N          0.9543809293       -0.3638790090        1.0075392421
 C          0.7892319219       -1.7057365339        1.5890486665
 H         -0.2101812420       -1.7881270850        2.0114777347
 H          1.5255364286       -1.8611201591        2.3749992189
 H          0.9191660543       -2.4560346383        0.8108365379
 C          0.6496495564        0.6419725526        2.0403117870
 H         -0.3881008648        0.5317978055        2.3525349561
 H          0.8183602852        1.6419425193        1.6394063504
 H          1.2943750821        0.4919262004        2.9037612908
 C          2.3392330646       -0.1848382311        0.5520860295
 H          2.4211040209        0.7534909609        0.0090617399
 H          2.6256117371       -1.0038888873       -0.1028204649
 H          3.0092653183       -0.1641519974        1.4090599495
 H         -0.5818201048       -2.6236257457       -1.0684046118
 C          3.7323605316        1.9026332559       -2.0576611265
 O          2.6816397332        1.3186493034       -2.3162909054
 N          4.8254891406        1.7750378790       -2.8437369120
 H          4.7809789508        1.1385108792       -3.6194079290
 H          5.7132808943        2.1739279297       -2.6002838020
 N          3.8640277718        2.6774771038       -0.9569486922
 H          4.6701048120        3.2621927419       -0.8297315806
 H          3.0201750336        2.9086366024       -0.4359060063
 C          0.5118625722        3.5102677331       -0.7071935353
 O          1.2706763402        3.1038426637        0.1742636303
 N          0.4427669962        2.9102823373       -1.9116421926
 H          1.1848508705        2.2440309252       -2.1484447206
 H         -0.0742511997        3.3257236092       -2.6656013038
 N         -0.3590030683        4.5228700868       -0.4736756797
 H         -0.8977636152        4.9390014549       -1.2111749603
 H         -0.2841626939        5.0196064317        0.3963679185
 C         -3.2852186660       -0.2904316899        1.6846091269
 O         -2.3060506725       -0.7676414590        2.2639125557
 N         -4.0126314934        0.7078368056        2.2402537174
 H         -3.8158170380        0.9665772381        3.1908331849
 H         -4.8709383454        1.0289434675        1.8310594494
 N         -3.6310657393       -0.6832348607        0.4456889578
 H         -4.4782477533       -0.3658335586        0.0115608885
 H         -3.1454791598       -1.4873284056        0.0416224845
 C         -2.2407637867       -3.8565015943        0.5254727732
 O         -2.1739067972       -2.9567489731       -0.3184465271
 N         -2.2243987539       -5.1561842154        0.1642932160
 H         -2.1739900056       -5.3831746274       -0.8128742801
 H         -2.2828227160       -5.9038047039        0.8305480068
 N         -2.3021862950       -3.5816322165        1.8401754347
 H         -2.4238274984       -4.3005151446        2.5290024380
 H         -2.3323191093       -2.6053334553        2.1287289795
