 xtb: 6.6.1 (unknown-commit)
          01102415353D

 53 48  0     0  0            999 V2000
   -0.6808   -1.9380   -3.0487 O   0  0  0  0  0  0  0  0  0  0  0  0
   -0.2928   -0.7000   -3.5608 C   0  0  0  0  0  0  0  0  0  0  0  0
    0.5617   -0.8903   -4.2150 H   0  0  0  0  0  0  0  0  0  0  0  0
   -1.0915   -0.2632   -4.1766 H   0  0  0  0  0  0  0  0  0  0  0  0
    0.0489    0.3535   -2.4922 C   0  0  0  0  0  0  0  0  0  0  0  0
   -0.8145    0.4778   -1.8345 H   0  0  0  0  0  0  0  0  0  0  0  0
    0.2353    1.2996   -3.0047 H   0  0  0  0  0  0  0  0  0  0  0  0
    1.2203    0.0668   -1.6229 N   0  0  0  0  0  0  0  0  0  0  0  0
    2.4394   -0.2027   -2.4010 C   0  0  0  0  0  0  0  0  0  0  0  0
    2.6163    0.5963   -3.1187 H   0  0  0  0  0  0  0  0  0  0  0  0
    2.3481   -1.1498   -2.9269 H   0  0  0  0  0  0  0  0  0  0  0  0
    3.2794   -0.2627   -1.7093 H   0  0  0  0  0  0  0  0  0  0  0  0
    0.9600   -1.0889   -0.7469 C   0  0  0  0  0  0  0  0  0  0  0  0
    0.6335   -1.9396   -1.3404 H   0  0  0  0  0  0  0  0  0  0  0  0
    0.2030   -0.8276   -0.0118 H   0  0  0  0  0  0  0  0  0  0  0  0
    1.8803   -1.3266   -0.2184 H   0  0  0  0  0  0  0  0  0  0  0  0
    1.4575    1.2439   -0.7686 C   0  0  0  0  0  0  0  0  0  0  0  0
    0.5448    1.4969   -0.2334 H   0  0  0  0  0  0  0  0  0  0  0  0
    1.7686    2.0925   -1.3742 H   0  0  0  0  0  0  0  0  0  0  0  0
    2.2441    0.9966   -0.0555 H   0  0  0  0  0  0  0  0  0  0  0  0
   -1.5193   -1.8274   -2.5553 H   0  0  0  0  0  0  0  0  0  0  0  0
    3.8749   -0.9632    1.6587 C   0  0  0  0  0  0  0  0  0  0  0  0
    3.6797   -0.4355    0.5705 O   0  0  0  0  0  0  0  0  0  0  0  0
    5.0701   -1.5244    1.9741 N   0  0  0  0  0  0  0  0  0  0  0  0
    5.8375   -1.3781    1.3422 H   0  0  0  0  0  0  0  0  0  0  0  0
    5.2841   -1.8285    2.9064 H   0  0  0  0  0  0  0  0  0  0  0  0
    2.9168   -1.0303    2.6129 N   0  0  0  0  0  0  0  0  0  0  0  0
    3.0445   -1.6286    3.4095 H   0  0  0  0  0  0  0  0  0  0  0  0
    1.9668   -0.7421    2.3790 H   0  0  0  0  0  0  0  0  0  0  0  0
   -2.8368    2.1593   -0.8094 C   0  0  0  0  0  0  0  0  0  0  0  0
   -1.8470    1.7952   -0.1589 O   0  0  0  0  0  0  0  0  0  0  0  0
   -3.2666    3.4401   -0.7628 N   0  0  0  0  0  0  0  0  0  0  0  0
   -2.7480    4.1132   -0.2281 H   0  0  0  0  0  0  0  0  0  0  0  0
   -4.0390    3.7631   -1.3159 H   0  0  0  0  0  0  0  0  0  0  0  0
   -3.5018    1.3135   -1.6064 N   0  0  0  0  0  0  0  0  0  0  0  0
   -4.3534    1.5890   -2.0609 H   0  0  0  0  0  0  0  0  0  0  0  0
   -3.2751    0.3141   -1.5646 H   0  0  0  0  0  0  0  0  0  0  0  0
    0.1795    1.1049    2.8286 C   0  0  0  0  0  0  0  0  0  0  0  0
    0.3037    0.0557    2.2010 O   0  0  0  0  0  0  0  0  0  0  0  0
   -0.5790    2.1262    2.3863 N   0  0  0  0  0  0  0  0  0  0  0  0
   -1.0865    2.0360    1.5133 H   0  0  0  0  0  0  0  0  0  0  0  0
   -0.7212    2.9477    2.9441 H   0  0  0  0  0  0  0  0  0  0  0  0
    0.7959    1.2974    4.0223 N   0  0  0  0  0  0  0  0  0  0  0  0
    0.7795    2.1848    4.4903 H   0  0  0  0  0  0  0  0  0  0  0  0
    1.4555    0.6101    4.3396 H   0  0  0  0  0  0  0  0  0  0  0  0
   -2.4461   -1.7225   -0.1667 C   0  0  0  0  0  0  0  0  0  0  0  0
   -2.7093   -1.3409   -1.3144 O   0  0  0  0  0  0  0  0  0  0  0  0
   -2.1906   -0.8509    0.8231 N   0  0  0  0  0  0  0  0  0  0  0  0
   -2.0620    0.1261    0.5657 H   0  0  0  0  0  0  0  0  0  0  0  0
   -1.7816   -1.1447    1.6930 H   0  0  0  0  0  0  0  0  0  0  0  0
   -2.3814   -3.0391    0.1314 N   0  0  0  0  0  0  0  0  0  0  0  0
   -2.2974   -3.3557    1.0802 H   0  0  0  0  0  0  0  0  0  0  0  0
   -2.6963   -3.6970   -0.5606 H   0  0  0  0  0  0  0  0  0  0  0  0
  1  2  1  0  0  0  0
  2  3  1  0  0  0  0
  2  4  1  0  0  0  0
  2  5  1  0  0  0  0
  5  6  1  0  0  0  0
  5  7  1  0  0  0  0
  5  8  1  0  0  0  0
  8  9  1  0  0  0  0
  9 10  1  0  0  0  0
  9 11  1  0  0  0  0
  9 12  1  0  0  0  0
  8 13  1  0  0  0  0
 13 14  1  0  0  0  0
 13 15  1  0  0  0  0
 13 16  1  0  0  0  0
  8 17  1  0  0  0  0
 17 18  1  0  0  0  0
 17 19  1  0  0  0  0
 17 20  1  0  0  0  0
  1 21  1  0  0  0  0
 22 23  2  0  0  0  0
 22 24  1  0  0  0  0
 24 25  1  0  0  0  0
 24 26  1  0  0  0  0
 22 27  4  0  0  0  0
 27 28  1  0  0  0  0
 27 29  1  0  0  0  0
 30 31  4  0  0  0  0
 30 32  4  0  0  0  0
 32 33  1  0  0  0  0
 32 34  1  0  0  0  0
 30 35  4  0  0  0  0
 35 36  1  0  0  0  0
 35 37  1  0  0  0  0
 38 39  2  0  0  0  0
 38 40  4  0  0  0  0
 40 41  1  0  0  0  0
 40 42  1  0  0  0  0
 38 43  4  0  0  0  0
 43 44  1  0  0  0  0
 43 45  1  0  0  0  0
 46 47  4  0  0  0  0
 46 48  4  0  0  0  0
 48 49  1  0  0  0  0
 48 50  1  0  0  0  0
 46 51  4  0  0  0  0
 51 52  1  0  0  0  0
 51 53  1  0  0  0  0
M  CHG  1   1   1
M  END
