  53

 O          0.9792415690       -0.9958468236        3.1463964460
 C          0.0993847059       -0.2152120104        2.3596473635
 H         -0.8617706519       -0.0945144192        2.8769696508
 H          0.5188276039        0.7814234788        2.1833891586
 C         -0.1070901293       -0.8204792228        0.9724155036
 H          0.8206891529       -0.7491846880        0.4026297641
 H         -0.8869108695       -0.2287209629        0.4883606806
 N         -0.5382861184       -2.2432832562        0.9200655449
 C          0.5907709149       -3.1353631492        1.2287262775
 H          1.3664687483       -2.9898133925        0.4787821943
 H          0.2602959860       -4.1718543676        1.2100375355
 H          0.9925918320       -2.8946894191        2.2091092678
 C         -0.9842527799       -2.5092654040       -0.4584557366
 H         -0.1603867690       -2.3078654998       -1.1395700816
 H         -1.8296855067       -1.8627814334       -0.6894859890
 H         -1.2844902277       -3.5505304262       -0.5551543335
 C         -1.6548506557       -2.4889859101        1.8428089505
 H         -1.3216398543       -2.3708545715        2.8704295264
 H         -2.0262637008       -3.5031061296        1.7092831579
 H         -2.4511803952       -1.7798283958        1.6146023956
 H          1.3128589573       -0.4646496237        3.8749832325
 C          3.2895487164       -1.4667271470       -1.0828032806
 O          2.0887709916       -1.7045916982       -1.2126688700
 N          3.7488869225       -0.3579163170       -0.4755444952
 H          3.1113010343        0.3566759479       -0.1482541789
 H          4.7332460421       -0.1743603099       -0.4114854812
 N          4.2279335668       -2.3476691568       -1.5101800102
 H          5.2080419551       -2.1336508498       -1.4942027960
 H          3.9281471706       -3.1536199602       -2.0287911787
 C          1.6594786378        2.9949708310        0.5849602440
 O          1.9895775796        1.8310373563        0.3352150555
 N          2.4393153994        3.7846390180        1.3678079312
 H          3.3516564614        3.4503364675        1.6223855515
 H          2.2533807606        4.7652584185        1.4746345358
 N          0.5057013863        3.5199844062        0.1547255946
 H          0.2700000538        4.4777192778        0.3393770506
 H         -0.1156772411        2.9737904428       -0.4508487656
 C         -0.5974163189        0.9963481908       -2.0480845104
 O         -1.1280430526        1.9705984184       -1.5018554989
 N          0.7043229544        0.7157228601       -1.8979485591
 H          1.1998873582        1.1998957796       -1.1479930221
 H          1.0681070268       -0.1960591677       -2.1325209301
 N         -1.3210550706        0.1486168230       -2.8262010768
 H         -0.8502643742       -0.5104394407       -3.4202694891
 H         -2.2468540321        0.4345100243       -3.0949632758
 C         -4.0018446490        0.4869630754        0.0083130204
 O         -3.1286976737       -0.3500000121        0.2196412321
 N         -5.2452528888        0.3636646220        0.5495213952
 H         -5.4857828167       -0.5044003782        0.9942958302
 H         -6.0008751459        0.9564549693        0.2566992530
 N         -3.7972519826        1.5687218151       -0.7664563200
 H         -4.4783221703        2.3058714097       -0.8011795051
 H         -2.8404144473        1.7919349854       -1.0449102822
