  53

 O         -2.3117954051       -0.0456602978        0.1274426863
 C         -1.1889281578        0.0185655677       -0.7074731283
 H         -1.2253065514       -0.8641727353       -1.3499316727
 H         -1.2430277363        0.9037904986       -1.3562549526
 C          0.1511783723        0.1119637482        0.0303597137
 H          0.1539974385        0.9943397652        0.6767795532
 H          0.9393563266        0.2059192782       -0.7179701525
 N          0.5042692984       -1.0436947174        0.9012933359
 C         -0.3787996887       -1.0871632438        2.0785422397
 H         -0.2734734440       -0.1516523631        2.6275600851
 H         -0.0979759138       -1.9193327053        2.7205561414
 H         -1.4118468391       -1.2049565862        1.7595884266
 C          1.8881478832       -0.8275665743        1.3568035080
 H          1.9333439387        0.1137831075        1.9027762185
 H          2.5476503173       -0.7827689988        0.4926848719
 H          2.1974829421       -1.6406292022        2.0098505307
 C          0.4252584848       -2.3153079244        0.1692905788
 H          0.8313026027       -3.1186942840        0.7804110571
 H          0.9950023613       -2.2546611714       -0.7561094711
 H         -0.6081630244       -2.5539493671       -0.0675166246
 H         -2.3577634376        0.7872698085        0.6548426559
 C          3.6609186513       -1.5070111061       -1.9940135424
 O          2.7189994778       -0.7436238537       -1.7598539772
 N          4.9450480860       -1.1040355168       -1.8164515612
 H          5.1134221231       -0.1287009858       -1.6434920566
 H          5.7179207961       -1.6648943671       -2.1259802170
 N          3.4673492204       -2.7797188986       -2.3661269854
 H          4.2338087487       -3.3901983919       -2.5810877799
 H          2.5105742620       -3.1106855241       -2.5176665928
 C          0.4990636199        2.8667809114        3.0914516784
 O          0.7246826559        1.7512103869        2.6372974428
 N          1.4725984438        3.5980275917        3.6966656008
 H          2.3489121552        3.1465061786        3.8895909686
 H          1.2609552380        4.4379220955        4.2039856308
 N         -0.7175619171        3.4451158443        3.0190342425
 H         -0.8398178232        4.4074289065        3.2769047228
 H         -1.4419430680        2.9962706137        2.4667051366
 C          0.2473326212       -2.5038712756       -3.5858614203
 O          0.7894794756       -3.3281958067       -2.8559945450
 N          0.5017373189       -1.1782043468       -3.4781652352
 H          1.2967267114       -0.9064110431       -2.8996706329
 H          0.1986307643       -0.5384959629       -4.1900668103
 N         -0.6874963502       -2.8685921173       -4.4946667154
 H         -1.1211144213       -2.2146649204       -5.1193619837
 H         -0.9029973645       -3.8447022149       -4.5893136643
 C         -4.0664059649        2.3289971988        1.5047782639
 O         -2.8386640521        2.2272021203        1.4975203225
 N         -4.8532986572        1.4652221168        0.8342754410
 H         -4.4194044815        0.6912643367        0.3567967110
 H         -5.8546562872        1.5156870642        0.8691991726
 N         -4.6928994172        3.3159168940        2.1811239678
 H         -5.6901359857        3.4247089304        2.1689001933
 H         -4.1432122625        3.9985404892        2.6704809007
