  53

 O         -2.4196746409       -3.9330079232       -1.1634817313
 C         -3.0387426552       -3.0356412044       -2.0327385129
 H         -3.5030540860       -3.6238228677       -2.8293716263
 H         -3.8323064638       -2.4770822116       -1.5229282360
 C         -2.0798922643       -1.9800333480       -2.6172498839
 H         -1.7111820978       -1.3414410487       -1.8118375010
 H         -2.6468570529       -1.3695536021       -3.3219864790
 N         -0.8829062113       -2.5229343693       -3.3246384503
 C          0.1009219276       -3.0119354237       -2.3402637518
 H          0.4507835444       -2.1688708296       -1.7471107093
 H          0.9454726197       -3.4651729955       -2.8549258838
 H         -0.3732656534       -3.7464616610       -1.6912745327
 C         -0.2654905190       -1.4238688031       -4.0868928504
 H         -0.0258676327       -0.6146722752       -3.3945589238
 H         -0.9461637698       -1.0619997814       -4.8548032450
 H          0.6513000705       -1.7687228291       -4.5611013403
 C         -1.2480898976       -3.6192780067       -4.2347832489
 H         -2.0429086402       -3.3020699283       -4.9077593129
 H         -1.5820984691       -4.4802657604       -3.6597299488
 H         -0.3816982449       -3.9095440953       -4.8266888618
 H         -2.3001881131       -3.4669805710       -0.3107620129
 C          3.2468365430        3.4087578932        1.9048070421
 O          2.5027166784        3.5177730647        0.9209604052
 N          3.0535079262        2.4504638547        2.8254927027
 H          2.1927402142        1.8991194711        2.7794996336
 H          3.5967509249        2.4211206941        3.6689287191
 N          4.2974644362        4.2381360851        2.0776571862
 H          4.9413155844        4.1382203782        2.8405960098
 H          4.4927744159        4.9214717711        1.3680231761
 C          0.8617611635        1.0406951552       -1.0451665653
 O          0.2470385885        0.0384731636       -1.4313873939
 N          0.5286342069        2.2855527839       -1.4518888042
 H         -0.1790819107        2.4156936994       -2.1509046161
 H          1.0754566319        3.0726695590       -1.1491875143
 N          1.9189261910        0.9793517461       -0.2191475005
 H          2.2535096606        1.8417591804        0.2005549429
 H          2.1222237715        0.1152210937        0.2512739337
 C         -0.3773147868        1.9350141133        2.2985982482
 O          0.5577682225        1.1677069409        2.5552552557
 N         -0.1720938591        3.1378055243        1.7380786314
 H          0.7689340722        3.3875219067        1.4376462573
 H         -0.9318759381        3.7590937308        1.5317721218
 N         -1.6552688726        1.5948298215        2.5749536997
 H         -2.4245086279        2.1981252398        2.3502983273
 H         -1.8515084469        0.6737675671        2.9369352389
 C         -1.3529831206       -1.6472822977        1.5938436437
 O         -2.1706894032       -2.1545220912        0.8378170408
 N         -1.6089000815       -1.4986422351        2.9357406502
 H         -2.3600869964       -2.0629043469        3.3016982314
 H         -0.8224665616       -1.3638846775        3.5516284321
 N         -0.1527168590       -1.1784455083        1.1860437746
 H          0.3172632408       -0.5165323323        1.7986024158
 H         -0.0629262326       -0.9761718576        0.1955339406
