 xtb: 6.6.1 (unknown-commit)
          01102415383D

 53 48  0     0  0            999 V2000
    0.2377    4.0074    0.6015 O   0  0  0  0  0  0  0  0  0  0  0  0
    0.3140    3.5531    1.9172 C   0  0  0  0  0  0  0  0  0  0  0  0
    1.1779    4.0482    2.3682 H   0  0  0  0  0  0  0  0  0  0  0  0
   -0.5772    3.8589    2.4867 H   0  0  0  0  0  0  0  0  0  0  0  0
    0.3960    2.0246    2.0492 C   0  0  0  0  0  0  0  0  0  0  0  0
   -0.4601    1.6020    1.5171 H   0  0  0  0  0  0  0  0  0  0  0  0
    0.3194    1.7682    3.1079 H   0  0  0  0  0  0  0  0  0  0  0  0
    1.6139    1.3674    1.5043 N   0  0  0  0  0  0  0  0  0  0  0  0
    1.7208    1.5648    0.0482 C   0  0  0  0  0  0  0  0  0  0  0  0
    0.8382    1.1666   -0.4448 H   0  0  0  0  0  0  0  0  0  0  0  0
    2.5955    1.0226   -0.3091 H   0  0  0  0  0  0  0  0  0  0  0  0
    1.8105    2.6235   -0.1805 H   0  0  0  0  0  0  0  0  0  0  0  0
    1.5101   -0.0788    1.7742 C   0  0  0  0  0  0  0  0  0  0  0  0
    1.5530   -0.2673    2.8447 H   0  0  0  0  0  0  0  0  0  0  0  0
    2.3396   -0.5847    1.2764 H   0  0  0  0  0  0  0  0  0  0  0  0
    0.5723   -0.4632    1.3791 H   0  0  0  0  0  0  0  0  0  0  0  0
    2.8455    1.8690    2.1320 C   0  0  0  0  0  0  0  0  0  0  0  0
    2.7815    1.7873    3.2157 H   0  0  0  0  0  0  0  0  0  0  0  0
    3.0146    2.9076    1.8585 H   0  0  0  0  0  0  0  0  0  0  0  0
    3.6826    1.2716    1.7735 H   0  0  0  0  0  0  0  0  0  0  0  0
   -0.4676    3.5060    0.1400 H   0  0  0  0  0  0  0  0  0  0  0  0
    3.9009   -1.3927   -1.1164 C   0  0  0  0  0  0  0  0  0  0  0  0
    3.7914   -0.6666   -0.1337 O   0  0  0  0  0  0  0  0  0  0  0  0
    5.1104   -1.8649   -1.5124 N   0  0  0  0  0  0  0  0  0  0  0  0
    5.9012   -1.6961   -0.9167 H   0  0  0  0  0  0  0  0  0  0  0  0
    5.2033   -2.5533   -2.2366 H   0  0  0  0  0  0  0  0  0  0  0  0
    2.8425   -1.7798   -1.8615 N   0  0  0  0  0  0  0  0  0  0  0  0
    2.9925   -2.2506   -2.7359 H   0  0  0  0  0  0  0  0  0  0  0  0
    1.9331   -1.3441   -1.7263 H   0  0  0  0  0  0  0  0  0  0  0  0
   -1.3368    2.4615   -1.9965 C   0  0  0  0  0  0  0  0  0  0  0  0
   -1.3732    2.2705   -0.7727 O   0  0  0  0  0  0  0  0  0  0  0  0
   -1.7735    3.6235   -2.5282 N   0  0  0  0  0  0  0  0  0  0  0  0
   -2.1205    4.3398   -1.9158 H   0  0  0  0  0  0  0  0  0  0  0  0
   -1.7352    3.8117   -3.5127 H   0  0  0  0  0  0  0  0  0  0  0  0
   -0.8696    1.5336   -2.8417 N   0  0  0  0  0  0  0  0  0  0  0  0
   -0.8222    1.7023   -3.8294 H   0  0  0  0  0  0  0  0  0  0  0  0
   -0.4651    0.6703   -2.4700 H   0  0  0  0  0  0  0  0  0  0  0  0
   -3.9864   -3.3028    1.4820 C   0  0  0  0  0  0  0  0  0  0  0  0
   -3.0013   -2.6799    1.1066 O   0  0  0  0  0  0  0  0  0  0  0  0
   -3.9401   -4.6288    1.7548 N   0  0  0  0  0  0  0  0  0  0  0  0
   -3.0456   -5.0857    1.7633 H   0  0  0  0  0  0  0  0  0  0  0  0
   -4.7165   -5.1111    2.1696 H   0  0  0  0  0  0  0  0  0  0  0  0
   -5.1931   -2.7115    1.6461 N   0  0  0  0  0  0  0  0  0  0  0  0
   -6.0199   -3.2395    1.8570 H   0  0  0  0  0  0  0  0  0  0  0  0
   -5.3034   -1.7560    1.3573 H   0  0  0  0  0  0  0  0  0  0  0  0
   -0.6198   -1.2532   -0.7878 C   0  0  0  0  0  0  0  0  0  0  0  0
    0.1622   -0.7579   -1.6124 O   0  0  0  0  0  0  0  0  0  0  0  0
   -0.6395   -2.5709   -0.5144 N   0  0  0  0  0  0  0  0  0  0  0  0
   -0.1045   -3.1987   -1.0867 H   0  0  0  0  0  0  0  0  0  0  0  0
   -1.3779   -2.9283    0.0769 H   0  0  0  0  0  0  0  0  0  0  0  0
   -1.4259   -0.4899   -0.0173 N   0  0  0  0  0  0  0  0  0  0  0  0
   -2.1587   -0.9638    0.4919 H   0  0  0  0  0  0  0  0  0  0  0  0
   -1.5623    0.4831   -0.2867 H   0  0  0  0  0  0  0  0  0  0  0  0
  1  2  1  0  0  0  0
  2  3  1  0  0  0  0
  2  4  1  0  0  0  0
  2  5  1  0  0  0  0
  5  6  1  0  0  0  0
  5  7  1  0  0  0  0
  5  8  1  0  0  0  0
  8  9  1  0  0  0  0
  9 10  1  0  0  0  0
  9 11  1  0  0  0  0
  9 12  1  0  0  0  0
  8 13  1  0  0  0  0
 13 14  1  0  0  0  0
 13 15  1  0  0  0  0
 13 16  1  0  0  0  0
  8 17  1  0  0  0  0
 17 18  1  0  0  0  0
 17 19  1  0  0  0  0
 17 20  1  0  0  0  0
  1 21  1  0  0  0  0
 22 23  2  0  0  0  0
 22 24  1  0  0  0  0
 24 25  1  0  0  0  0
 24 26  1  0  0  0  0
 22 27  4  0  0  0  0
 27 28  1  0  0  0  0
 27 29  1  0  0  0  0
 30 31  4  0  0  0  0
 30 32  4  0  0  0  0
 32 33  1  0  0  0  0
 32 34  1  0  0  0  0
 30 35  4  0  0  0  0
 35 36  1  0  0  0  0
 35 37  1  0  0  0  0
 38 39  2  0  0  0  0
 38 40  4  0  0  0  0
 40 41  1  0  0  0  0
 40 42  1  0  0  0  0
 38 43  4  0  0  0  0
 43 44  1  0  0  0  0
 43 45  1  0  0  0  0
 46 47  4  0  0  0  0
 46 48  4  0  0  0  0
 48 49  1  0  0  0  0
 48 50  1  0  0  0  0
 46 51  4  0  0  0  0
 51 52  1  0  0  0  0
 51 53  1  0  0  0  0
M  CHG  1   1   1
M  END
