  53

 O          2.2224160776       -2.5310659519        1.7736377963
 C          2.1816768874       -1.1347066205        1.8302753408
 H          1.5387413639       -0.8682975106        2.6725244015
 H          3.1843698468       -0.7313959620        2.0402101308
 C          1.7225089474       -0.4739537247        0.5257582286
 H          2.3709526967       -0.8400096408       -0.2744888748
 H          1.8368790456        0.6079976732        0.6298024584
 N          0.3169184993       -0.7302705537        0.1141104805
 C         -0.6267646031       -0.1972484821        1.1073700868
 H         -0.3933965831        0.8481130705        1.2921567519
 H         -0.5595366105       -0.7602662809        2.0340572938
 H         -1.6353840930       -0.2874265836        0.7038846245
 C          0.0471975223       -2.1626473402       -0.0891217930
 H          0.7593531474       -2.5754977496       -0.8014466826
 H         -0.9682756645       -2.2704349773       -0.4663764187
 H          0.1489210287       -2.6992952202        0.8511603570
 C          0.0812790838       -0.0308438038       -1.1602389421
 H          0.7514241203       -0.4148961064       -1.9259818945
 H          0.2467507929        1.0351389867       -1.0316174507
 H         -0.9531762333       -0.1984704660       -1.4590317945
 H          2.6108258967       -2.7731788170        0.8994780545
 C          3.9512138943       -4.0617185333       -0.6847155700
 O          3.1867152611       -3.0987247412       -0.6928316199
 N          4.5369233823       -4.5130333554       -1.8148017956
 H          4.3762166173       -4.0170007585       -2.6728307035
 H          5.1992593932       -5.2664753954       -1.8132098785
 N          4.2538965304       -4.7259959790        0.4513971076
 H          4.8365273141       -5.5427785835        0.4524643854
 H          3.8012415543       -4.4597007357        1.3096380521
 C          1.0112854142        3.4603250572       -0.2536001244
 O          0.9706386004        2.7151919137        0.7291718700
 N         -0.0610120789        3.6420132451       -1.0454276850
 H         -0.9634043948        3.2763706919       -0.7287585163
 H         -0.0552673789        4.3265939043       -1.7794562736
 N          2.1640434957        4.0642473614       -0.6289783098
 H          2.1908180740        4.7474033949       -1.3636812003
 H          2.9593394635        3.9916061321       -0.0196232009
 C         -2.5460120063        2.8880311743        1.2985209804
 O         -2.4341357429        2.6699836071        0.0891761258
 N         -3.7588266383        2.9018151040        1.8984309014
 H         -4.5806618789        2.8018589383        1.3303947888
 H         -3.8734888676        3.1418276154        2.8657339391
 N         -1.4783067714        3.1016760592        2.0847816613
 H         -1.5733227906        3.2803003061        3.0672005378
 H         -0.5434089117        3.0254888026        1.6845925840
 C         -3.8926944528       -0.4444426286       -1.3655447868
 O         -2.8473435472       -0.9201042944       -0.9381533074
 N         -4.7757709473       -1.1946800705       -2.0762383606
 H         -4.6203697990       -2.1864190043       -2.1180924682
 H         -5.6964173213       -0.8583896731       -2.2932411971
 N         -4.2395350928        0.8457870941       -1.1631906218
 H         -5.0088257424        1.2450427394       -1.6706489422
 H         -3.5469701976        1.4858409717       -0.7795671699
