  53

 O         -3.9574158384       -0.2195210734        3.8597166828
 C         -3.0460223793       -1.2380070485        4.2060544152
 H         -2.6243015835       -1.0433392520        5.2029549344
 H         -3.5436653308       -2.2147250610        4.2394630525
 C         -1.9305343369       -1.3598983228        3.1640127336
 H         -2.3407420464       -1.7064590653        2.2125095953
 H         -1.2302247789       -2.1109912341        3.5347903395
 N         -1.1727729950       -0.1164327544        2.8631302185
 C         -1.9568016629        0.7432474348        1.9575100072
 H         -2.0991879344        0.2138428156        1.0168399847
 H         -1.4057384434        1.6635915493        1.7842462935
 H         -2.9227750986        0.9595968041        2.4044223684
 C          0.0664175124       -0.5001299046        2.1646000550
 H         -0.2077257849       -1.0824010092        1.2841071211
 H          0.7072019267       -1.0880209620        2.8180490972
 H          0.5896122258        0.4026335569        1.8546291463
 C         -0.8294056464        0.6496712483        4.0685956545
 H         -0.2983697423        0.0207908722        4.7810764129
 H         -1.7313828847        1.0460920884        4.5287303757
 H         -0.1888222076        1.4809188989        3.7754297893
 H         -4.7782263155       -0.3362135665        4.3476650695
 C          2.0518762881       -1.4056710343       -4.2312015051
 O          0.8292438764       -1.5167326353       -4.0925656880
 N          2.8145453414       -0.7930092170       -3.3096827578
 H          2.3585174830       -0.3107840347       -2.5315309015
 H          3.7930944760       -0.6364929106       -3.4665928681
 N          2.6784226823       -1.9155679921       -5.3142611649
 H          3.6741677087       -1.8780571132       -5.4295157364
 H          2.1327603777       -2.4191125253       -5.9903508503
 C          2.0565064502        2.7364753131        1.5510441187
 O          0.8593863207        2.4848931442        1.7248259466
 N          2.7762703422        2.1354823387        0.5926974619
 H          2.3159772461        1.5031425885       -0.0704032015
 H          3.7389039387        2.3732026282        0.4395780543
 N          2.7139916082        3.5939497431        2.3698967054
 H          3.6504860731        3.8966899674        2.1728784933
 H          2.1767947059        4.1295158142        3.0285043928
 C          0.2986683758        1.0221643452       -1.5937467829
 O          1.4059209124        0.5648532861       -1.2687809214
 N         -0.2688324380        0.7318476778       -2.7770961306
 H          0.1100372656       -0.0345115446       -3.3341909960
 H         -1.2150312500        1.0104378705       -2.9646776439
 N         -0.3770067483        1.8477802629       -0.7716601757
 H         -1.2219299835        2.2974047378       -1.0720956197
 H          0.0567815969        2.1496297566        0.0976926959
 C         -1.2616271493       -1.8868375526       -1.1745738864
 O         -1.6570550087       -1.6412513757       -0.0370553736
 N         -2.0945925981       -1.8504353169       -2.2478712230
 H         -3.0851111789       -1.8726566336       -2.0783565147
 H         -1.7628746710       -2.1833583271       -3.1369638894
 N          0.0206370417       -2.2027288014       -1.4591725951
 H          0.3267406955       -2.1443804761       -2.4261009195
 H          0.7205944110       -2.0032331799       -0.7645029569
