  53

 O         -2.0129923684       -1.6068933504       -0.5284394321
 C         -2.2905084527       -0.3477961826       -1.0805232633
 H         -1.5435453994       -0.1678145111       -1.8563179699
 H         -3.2797485081       -0.3602771099       -1.5638896772
 C         -2.3442216595        0.7816163771       -0.0413998356
 H         -3.0089993975        0.4536335469        0.7630859997
 H         -2.7671961834        1.6684608178       -0.5167687028
 N         -1.0517638929        1.1689567638        0.5823684025
 C         -0.3915306012        0.0047796948        1.1946753157
 H         -1.0643847708       -0.4627179281        1.9110544421
 H          0.5136822082        0.3477581980        1.6940804908
 H         -0.1346476963       -0.7172309275        0.4253847601
 C         -1.3096785759        2.1529397325        1.6474253120
 H         -0.3546715794        2.4414777201        2.0860532989
 H         -1.9422625767        1.7137165659        2.4161734030
 H         -1.8026034879        3.0337513587        1.2406531907
 C         -0.1435403410        1.7817666459       -0.3993556196
 H         -0.5815831326        2.6986075298       -0.7884041627
 H          0.0477338542        1.1040401482       -1.2283888434
 H          0.7956938415        2.0119852989        0.1022910338
 H         -2.5037746234       -1.6660583756        0.3226937512
 C          2.2772672738       -1.3121389996       -0.6516740512
 O          2.8563780966       -0.2346682626       -0.8152110537
 N          1.2142118796       -1.6692752130       -1.3847279311
 H          0.8470289116       -1.0185318175       -2.0844659346
 H          0.7269767561       -2.5340688407       -1.2365647845
 N          2.6614537763       -2.1692418865        0.3303878051
 H          2.3038481514       -3.1065504526        0.3691085234
 H          3.5250357695       -1.9807290672        0.8083907676
 C          3.0390933655        2.0877237856        2.0774713610
 O          1.8174767845        2.0216285376        1.9859956771
 N          3.8652295942        1.3188186248        1.3382300156
 H          3.4835543908        0.7869658492        0.5576691316
 H          4.8519193409        1.5056826984        1.3273351627
 N          3.6378424182        2.9444910318        2.9460684309
 H          4.6244549351        2.9087418351        3.1268671306
 H          3.0580627663        3.4314779176        3.6060184862
 C          1.1642726561        0.8487295385       -3.7820962115
 O          0.2805497684        0.2731577330       -3.1404998811
 N          0.9145284188        1.3533438653       -5.0134202842
 H          0.0228276321        1.1630744736       -5.4341330272
 H          1.6381004832        1.7488568971       -5.5849128836
 N          2.3915792320        1.0450267869       -3.2768289998
 H          3.1198538065        1.4742439564       -3.8168105629
 H          2.6215593387        0.6448647054       -2.3651479907
 C         -4.1403698182       -2.4855127652        2.0040411665
 O         -3.3775827610       -1.5372355752        1.8302116286
 N         -4.2643900846       -3.4772061082        1.0950905945
 H         -3.7159043559       -3.4418015355        0.2527852507
 H         -4.8875768984       -4.2517712396        1.2292739877
 N         -4.9064495437       -2.5893844331        3.1101004557
 H         -5.5214760470       -3.3656361049        3.2697378622
 H         -4.8331352289       -1.8811135390        3.8179588329
