 xtb: 6.6.1 (unknown-commit)
          01102415433D

 53 48  0     0  0            999 V2000
    0.2601    1.3980    0.8379 O   0  0  0  0  0  0  0  0  0  0  0  0
   -0.4798    1.7131   -0.3047 C   0  0  0  0  0  0  0  0  0  0  0  0
   -0.6611    2.7908   -0.2760 H   0  0  0  0  0  0  0  0  0  0  0  0
    0.1011    1.5011   -1.2134 H   0  0  0  0  0  0  0  0  0  0  0  0
   -1.7952    0.9355   -0.4528 C   0  0  0  0  0  0  0  0  0  0  0  0
   -1.5842   -0.1355   -0.5165 H   0  0  0  0  0  0  0  0  0  0  0  0
   -2.2781    1.2760   -1.3702 H   0  0  0  0  0  0  0  0  0  0  0  0
   -2.7854    1.1053    0.6473 N   0  0  0  0  0  0  0  0  0  0  0  0
   -2.3036    0.4512    1.8743 C   0  0  0  0  0  0  0  0  0  0  0  0
   -2.1588   -0.6084    1.6655 H   0  0  0  0  0  0  0  0  0  0  0  0
   -3.0366    0.5689    2.6696 H   0  0  0  0  0  0  0  0  0  0  0  0
   -1.3561    0.8915    2.1777 H   0  0  0  0  0  0  0  0  0  0  0  0
   -4.0318    0.4491    0.2156 C   0  0  0  0  0  0  0  0  0  0  0  0
   -3.8199   -0.5961   -0.0033 H   0  0  0  0  0  0  0  0  0  0  0  0
   -4.4074    0.9520   -0.6735 H   0  0  0  0  0  0  0  0  0  0  0  0
   -4.7753    0.5084    1.0077 H   0  0  0  0  0  0  0  0  0  0  0  0
   -3.0586    2.5270    0.8980 C   0  0  0  0  0  0  0  0  0  0  0  0
   -3.3487    2.9964   -0.0416 H   0  0  0  0  0  0  0  0  0  0  0  0
   -2.1762    3.0139    1.3052 H   0  0  0  0  0  0  0  0  0  0  0  0
   -3.8722    2.6229    1.6146 H   0  0  0  0  0  0  0  0  0  0  0  0
    0.5608    0.4557    0.7533 H   0  0  0  0  0  0  0  0  0  0  0  0
    6.9991   -0.8658    1.4561 C   0  0  0  0  0  0  0  0  0  0  0  0
    5.8208   -0.9321    1.1338 O   0  0  0  0  0  0  0  0  0  0  0  0
    7.4388   -0.0135    2.4140 N   0  0  0  0  0  0  0  0  0  0  0  0
    6.7571    0.4847    2.9583 H   0  0  0  0  0  0  0  0  0  0  0  0
    8.3800   -0.0492    2.7608 H   0  0  0  0  0  0  0  0  0  0  0  0
    7.9494   -1.6409    0.8793 N   0  0  0  0  0  0  0  0  0  0  0  0
    8.9273   -1.4936    1.0512 H   0  0  0  0  0  0  0  0  0  0  0  0
    7.6919   -2.1885    0.0773 H   0  0  0  0  0  0  0  0  0  0  0  0
   -4.4002    3.0239   -3.1684 C   0  0  0  0  0  0  0  0  0  0  0  0
   -3.9531    2.5947   -2.1144 O   0  0  0  0  0  0  0  0  0  0  0  0
   -4.6517    2.2163   -4.2277 N   0  0  0  0  0  0  0  0  0  0  0  0
   -4.3680    1.2544   -4.1753 H   0  0  0  0  0  0  0  0  0  0  0  0
   -4.9176    2.5819   -5.1235 H   0  0  0  0  0  0  0  0  0  0  0  0
   -4.6786    4.3366   -3.3557 N   0  0  0  0  0  0  0  0  0  0  0  0
   -5.1440    4.6695   -4.1800 H   0  0  0  0  0  0  0  0  0  0  0  0
   -4.6055    4.9592   -2.5713 H   0  0  0  0  0  0  0  0  0  0  0  0
   -1.7458   -3.2017    0.1185 C   0  0  0  0  0  0  0  0  0  0  0  0
   -2.3171   -2.1173    0.1198 O   0  0  0  0  0  0  0  0  0  0  0  0
   -2.4458   -4.3700    0.1356 N   0  0  0  0  0  0  0  0  0  0  0  0
   -3.4402   -4.3231    0.0010 H   0  0  0  0  0  0  0  0  0  0  0  0
   -1.9968   -5.2530   -0.0265 H   0  0  0  0  0  0  0  0  0  0  0  0
   -0.4037   -3.3157    0.1087 N   0  0  0  0  0  0  0  0  0  0  0  0
    0.0276   -4.2116    0.2476 H   0  0  0  0  0  0  0  0  0  0  0  0
    0.1655   -2.4782    0.2370 H   0  0  0  0  0  0  0  0  0  0  0  0
    2.4698   -1.0364    0.6854 C   0  0  0  0  0  0  0  0  0  0  0  0
    1.2433   -1.0602    0.4980 O   0  0  0  0  0  0  0  0  0  0  0  0
    3.2490   -2.1174    0.4976 N   0  0  0  0  0  0  0  0  0  0  0  0
    2.8606   -2.9570    0.1104 H   0  0  0  0  0  0  0  0  0  0  0  0
    4.2466   -2.0244    0.6180 H   0  0  0  0  0  0  0  0  0  0  0  0
    3.1097    0.0633    1.1117 N   0  0  0  0  0  0  0  0  0  0  0  0
    4.1136    0.0333    1.2181 H   0  0  0  0  0  0  0  0  0  0  0  0
    2.5949    0.9134    1.2628 H   0  0  0  0  0  0  0  0  0  0  0  0
  1  2  1  0  0  0  0
  2  3  1  0  0  0  0
  2  4  1  0  0  0  0
  2  5  1  0  0  0  0
  5  6  1  0  0  0  0
  5  7  1  0  0  0  0
  5  8  1  0  0  0  0
  8  9  1  0  0  0  0
  9 10  1  0  0  0  0
  9 11  1  0  0  0  0
  9 12  1  0  0  0  0
  8 13  1  0  0  0  0
 13 14  1  0  0  0  0
 13 15  1  0  0  0  0
 13 16  1  0  0  0  0
  8 17  1  0  0  0  0
 17 18  1  0  0  0  0
 17 19  1  0  0  0  0
 17 20  1  0  0  0  0
  1 21  1  0  0  0  0
 22 23  2  0  0  0  0
 22 24  4  0  0  0  0
 24 25  1  0  0  0  0
 24 26  1  0  0  0  0
 22 27  4  0  0  0  0
 27 28  1  0  0  0  0
 27 29  1  0  0  0  0
 30 31  2  0  0  0  0
 30 32  4  0  0  0  0
 32 33  1  0  0  0  0
 32 34  1  0  0  0  0
 30 35  4  0  0  0  0
 35 36  1  0  0  0  0
 35 37  1  0  0  0  0
 38 39  2  0  0  0  0
 38 40  1  0  0  0  0
 40 41  1  0  0  0  0
 40 42  1  0  0  0  0
 38 43  4  0  0  0  0
 43 44  1  0  0  0  0
 43 45  1  0  0  0  0
 46 47  4  0  0  0  0
 46 48  4  0  0  0  0
 48 49  1  0  0  0  0
 48 50  1  0  0  0  0
 46 51  4  0  0  0  0
 51 52  1  0  0  0  0
 51 53  1  0  0  0  0
M  CHG  1   1   1
M  END
