   30
 
C         -5.57349        5.06328       -1.64860
N         -5.32988        4.00189       -0.84734
H         -5.85812        3.82990        0.01883
H         -4.79931        3.21497       -1.18435
N         -4.89666        5.07717       -2.85994
H         -4.03033        4.56807       -2.94754
H         -4.92302        5.96704       -3.33255
O         -6.35940        5.97740       -1.36675
N         -8.64245        6.22717        1.24662
C         -9.00316        7.50018        0.53741
H         -8.36252        7.58977       -0.33849
H         -8.84284        8.34163        1.21101
H        -10.04987        7.45713        0.23737
C         -8.87081        5.07379        0.29100
H         -8.48561        4.15893        0.74409
H         -8.30942        5.28606       -0.61569
H         -9.94163        5.01290        0.09446
C         -7.18381        6.30783        1.64889
H         -6.87475        5.34054        2.04811
H         -7.08700        7.10443        2.38715
H         -6.60919        6.52148        0.75072
C         -9.52222        6.08678        2.46727
H        -10.55778        6.09639        2.12188
H         -9.35991        6.97147        3.08593
C         -9.28609        4.83579        3.30904
H         -8.26270        4.79282        3.68835
H         -9.44943        3.92409        2.73003
O        -10.23871        4.96901        4.36807
H        -10.15233        4.20751        4.94944
Cl        -6.73457        2.94112        1.86416
