  53

 O         -1.9499469965       -0.4115849262       -2.0089281312
 C         -0.6107759991       -0.0029774377       -1.9091673074
 H         -0.2257045522        0.0214745973       -2.9315163642
 H         -0.5486405796        1.0183153523       -1.5073844651
 C          0.2283493044       -0.8911120014       -0.9886582319
 H         -0.3347927333       -1.0135821021       -0.0617975026
 H          1.1842421063       -0.4116642511       -0.7670290156
 N          0.5405212818       -2.2615056052       -1.4846244252
 C         -0.6817311790       -2.9679121140       -1.8961217771
 H         -1.3926724498       -2.9720433457       -1.0713451412
 H         -0.4431220479       -3.9930090008       -2.1737687528
 H         -1.1480516484       -2.4633030546       -2.7391996352
 C          1.1735464804       -2.9912982865       -0.3717941288
 H          0.4888022888       -3.0550311019        0.4713804505
 H          2.0676883889       -2.4472338231       -0.0666067887
 H          1.4480512293       -3.9949281291       -0.6898384217
 C          1.4992635351       -2.1918831236       -2.5975391991
 H          2.3950052250       -1.6756443409       -2.2532679396
 H          1.0679208860       -1.6524945310       -3.4368194987
 H          1.7636781302       -3.1952895012       -2.9256156322
 H         -2.3009727988       -0.5522488430       -1.1164230934
 C          3.9299676931       -0.3462317873        0.5951240333
 O          3.2454073667       -0.7477571711       -0.3426820694
 N          5.2862542698       -0.3513665357        0.5314511893
 H          5.7196745955       -0.5737964531       -0.3469161192
 H          5.8512948450        0.0857921286        1.2364747567
 N          3.3884612098        0.1261875394        1.7366991551
 H          3.9702054613        0.2927497923        2.5385274406
 H          2.3837826403        0.0134496165        1.8992724611
 C         -1.8574476156        4.1160064483       -1.2101358418
 O         -1.0886155121        3.3486340947       -0.6424524825
 N         -1.4412030180        4.9543703884       -2.1852094039
 H         -0.4820378094        4.9130222176       -2.4788306288
 H         -2.0710457052        5.5523763475       -2.6870922944
 N         -3.1741323022        4.1745589053       -0.9037960002
 H         -3.7928095891        4.8395380374       -1.3297307463
 H         -3.5260069128        3.6156966006       -0.1474866501
 C         -2.1713618822       -2.0884073266        1.8272988555
 O         -2.2673103581       -1.4169968632        0.7959003441
 N         -3.1212749323       -2.9956898475        2.1605773539
 H         -3.9704068451       -3.0117510792        1.6233225519
 H         -3.1202016670       -3.4590698773        3.0511434578
 N         -1.0784561053       -2.0284694517        2.6106424138
 H         -1.0771766211       -2.4736868855        3.5111772477
 H         -0.4196349221       -1.2497300075        2.4705296852
 C          0.1186286017        1.1297116068        1.5501489975
 O          0.6042933194        0.1127250646        2.0735163864
 N         -1.1872847108        1.2386430994        1.2480305651
 H         -1.7471897630        0.3956326027        1.2170492501
 H         -1.4484149479        2.0111853467        0.6461986567
 N          0.8655768442        2.2187027741        1.2851849094
 H          0.4712884871        2.9539931219        0.7210289162
 H          1.8562570092        2.1905653353        1.4474820980
