 xtb: 6.6.1 (unknown-commit)
          01102415393D

 53 48  0     0  0            999 V2000
   -1.9500   -0.4116   -2.0089 O   0  0  0  0  0  0  0  0  0  0  0  0
   -0.6108   -0.0030   -1.9092 C   0  0  0  0  0  0  0  0  0  0  0  0
   -0.2257    0.0215   -2.9315 H   0  0  0  0  0  0  0  0  0  0  0  0
   -0.5486    1.0183   -1.5074 H   0  0  0  0  0  0  0  0  0  0  0  0
    0.2283   -0.8911   -0.9887 C   0  0  0  0  0  0  0  0  0  0  0  0
   -0.3348   -1.0136   -0.0618 H   0  0  0  0  0  0  0  0  0  0  0  0
    1.1842   -0.4117   -0.7670 H   0  0  0  0  0  0  0  0  0  0  0  0
    0.5405   -2.2615   -1.4846 N   0  0  0  0  0  0  0  0  0  0  0  0
   -0.6818   -2.9679   -1.8961 C   0  0  0  0  0  0  0  0  0  0  0  0
   -1.3927   -2.9720   -1.0713 H   0  0  0  0  0  0  0  0  0  0  0  0
   -0.4432   -3.9930   -2.1738 H   0  0  0  0  0  0  0  0  0  0  0  0
   -1.1481   -2.4633   -2.7392 H   0  0  0  0  0  0  0  0  0  0  0  0
    1.1735   -2.9913   -0.3718 C   0  0  0  0  0  0  0  0  0  0  0  0
    0.4888   -3.0550    0.4714 H   0  0  0  0  0  0  0  0  0  0  0  0
    2.0677   -2.4472   -0.0666 H   0  0  0  0  0  0  0  0  0  0  0  0
    1.4480   -3.9949   -0.6898 H   0  0  0  0  0  0  0  0  0  0  0  0
    1.4992   -2.1919   -2.5975 C   0  0  0  0  0  0  0  0  0  0  0  0
    2.3950   -1.6757   -2.2533 H   0  0  0  0  0  0  0  0  0  0  0  0
    1.0679   -1.6525   -3.4368 H   0  0  0  0  0  0  0  0  0  0  0  0
    1.7637   -3.1953   -2.9256 H   0  0  0  0  0  0  0  0  0  0  0  0
   -2.3010   -0.5522   -1.1164 H   0  0  0  0  0  0  0  0  0  0  0  0
    3.9300   -0.3463    0.5951 C   0  0  0  0  0  0  0  0  0  0  0  0
    3.2454   -0.7478   -0.3427 O   0  0  0  0  0  0  0  0  0  0  0  0
    5.2863   -0.3514    0.5314 N   0  0  0  0  0  0  0  0  0  0  0  0
    5.7197   -0.5738   -0.3469 H   0  0  0  0  0  0  0  0  0  0  0  0
    5.8513    0.0858    1.2365 H   0  0  0  0  0  0  0  0  0  0  0  0
    3.3885    0.1262    1.7367 N   0  0  0  0  0  0  0  0  0  0  0  0
    3.9702    0.2927    2.5385 H   0  0  0  0  0  0  0  0  0  0  0  0
    2.3838    0.0134    1.8993 H   0  0  0  0  0  0  0  0  0  0  0  0
   -1.8574    4.1160   -1.2101 C   0  0  0  0  0  0  0  0  0  0  0  0
   -1.0886    3.3486   -0.6425 O   0  0  0  0  0  0  0  0  0  0  0  0
   -1.4412    4.9544   -2.1852 N   0  0  0  0  0  0  0  0  0  0  0  0
   -0.4820    4.9130   -2.4788 H   0  0  0  0  0  0  0  0  0  0  0  0
   -2.0710    5.5524   -2.6871 H   0  0  0  0  0  0  0  0  0  0  0  0
   -3.1741    4.1746   -0.9038 N   0  0  0  0  0  0  0  0  0  0  0  0
   -3.7928    4.8396   -1.3297 H   0  0  0  0  0  0  0  0  0  0  0  0
   -3.5260    3.6157   -0.1475 H   0  0  0  0  0  0  0  0  0  0  0  0
   -2.1714   -2.0884    1.8273 C   0  0  0  0  0  0  0  0  0  0  0  0
   -2.2673   -1.4170    0.7959 O   0  0  0  0  0  0  0  0  0  0  0  0
   -3.1213   -2.9957    2.1606 N   0  0  0  0  0  0  0  0  0  0  0  0
   -3.9704   -3.0117    1.6233 H   0  0  0  0  0  0  0  0  0  0  0  0
   -3.1202   -3.4590    3.0512 H   0  0  0  0  0  0  0  0  0  0  0  0
   -1.0785   -2.0285    2.6106 N   0  0  0  0  0  0  0  0  0  0  0  0
   -1.0772   -2.4737    3.5112 H   0  0  0  0  0  0  0  0  0  0  0  0
   -0.4196   -1.2497    2.4705 H   0  0  0  0  0  0  0  0  0  0  0  0
    0.1186    1.1297    1.5501 C   0  0  0  0  0  0  0  0  0  0  0  0
    0.6043    0.1127    2.0735 O   0  0  0  0  0  0  0  0  0  0  0  0
   -1.1873    1.2387    1.2480 N   0  0  0  0  0  0  0  0  0  0  0  0
   -1.7472    0.3956    1.2171 H   0  0  0  0  0  0  0  0  0  0  0  0
   -1.4484    2.0112    0.6462 H   0  0  0  0  0  0  0  0  0  0  0  0
    0.8656    2.2187    1.2852 N   0  0  0  0  0  0  0  0  0  0  0  0
    0.4713    2.9540    0.7210 H   0  0  0  0  0  0  0  0  0  0  0  0
    1.8563    2.1906    1.4475 H   0  0  0  0  0  0  0  0  0  0  0  0
  1  2  1  0  0  0  0
  2  3  1  0  0  0  0
  2  4  1  0  0  0  0
  2  5  1  0  0  0  0
  5  6  1  0  0  0  0
  5  7  1  0  0  0  0
  5  8  1  0  0  0  0
  8  9  1  0  0  0  0
  9 10  1  0  0  0  0
  9 11  1  0  0  0  0
  9 12  1  0  0  0  0
  8 13  1  0  0  0  0
 13 14  1  0  0  0  0
 13 15  1  0  0  0  0
 13 16  1  0  0  0  0
  8 17  1  0  0  0  0
 17 18  1  0  0  0  0
 17 19  1  0  0  0  0
 17 20  1  0  0  0  0
  1 21  1  0  0  0  0
 22 23  2  0  0  0  0
 22 24  1  0  0  0  0
 24 25  1  0  0  0  0
 24 26  1  0  0  0  0
 22 27  4  0  0  0  0
 27 28  1  0  0  0  0
 27 29  1  0  0  0  0
 30 31  2  0  0  0  0
 30 32  4  0  0  0  0
 32 33  1  0  0  0  0
 32 34  1  0  0  0  0
 30 35  4  0  0  0  0
 35 36  1  0  0  0  0
 35 37  1  0  0  0  0
 38 39  4  0  0  0  0
 38 40  4  0  0  0  0
 40 41  1  0  0  0  0
 40 42  1  0  0  0  0
 38 43  4  0  0  0  0
 43 44  1  0  0  0  0
 43 45  1  0  0  0  0
 46 47  4  0  0  0  0
 46 48  4  0  0  0  0
 48 49  1  0  0  0  0
 48 50  1  0  0  0  0
 46 51  4  0  0  0  0
 51 52  1  0  0  0  0
 51 53  1  0  0  0  0
M  CHG  1   1   1
M  END
