  53

 O         -0.9596743032       -1.4266178577       -2.5833410958
 C          0.2532191210       -0.8595116667       -2.1646813775
 H          1.0394792923       -1.3274996901       -2.7599069896
 H          0.2757039746        0.2165042274       -2.3724342973
 C          0.5291568932       -0.9937822580       -0.6638152651
 H         -0.2949066426       -0.5423901120       -0.1092304376
 H          1.4475764508       -0.4459743493       -0.4467387122
 N          0.7105070279       -2.3783058637       -0.1458209708
 C         -0.5617501678       -3.1130365627       -0.2017740032
 H         -1.2863810397       -2.6215280628        0.4450363711
 H         -0.4172410337       -4.1382882719        0.1342415254
 H         -0.9382690734       -3.1099747585       -1.2240127736
 C          1.1516927810       -2.2682276099        1.2549060705
 H          0.4117441692       -1.7023971834        1.8193180551
 H          2.1088173485       -1.7502101995        1.2816066021
 H          1.2595727423       -3.2595313766        1.6905380847
 C          1.7479553621       -3.0907597424       -0.9056170602
 H          2.6498325673       -2.4791050131       -0.9156011421
 H          1.4118475458       -3.2804755819       -1.9214777254
 H          1.9655179953       -4.0434546393       -0.4262529588
 H         -1.6771546873       -0.8888271749       -2.1982598324
 C          4.1843782260        0.3424443038       -0.3485127819
 O          3.5094303324       -0.6352348486       -0.0476101856
 N          5.5338459295        0.2545285137       -0.4900057885
 H          5.9817246590       -0.5983464048       -0.2050564321
 H          6.1081949975        1.0716639180       -0.5894057720
 N          3.6478733099        1.5629036198       -0.5622197881
 H          4.2117900576        2.3017360331       -0.9419058344
 H          2.6403088036        1.6654136741       -0.6157715631
 C         -1.0320279072        0.5475788483        2.8905564708
 O         -1.2378718245       -0.4387643707        2.1844626167
 N         -1.2516105890        1.8052611001        2.4550371739
 H         -1.3953024125        1.9607190781        1.4620870395
 H         -0.9456413506        2.5890966922        3.0035586488
 N         -0.5809343240        0.4193585309        4.1604720486
 H         -0.5019370334        1.2065943295        4.7779935349
 H         -0.5308163053       -0.5002566477        4.5618287384
 C         -3.6669101247       -0.3898472467       -0.5525766396
 O         -2.6896526864        0.1042202414       -1.1208318043
 N         -4.8450411158       -0.5452442929       -1.1982810067
 H         -4.8857453443       -0.3251893565       -2.1776802847
 H         -5.6230618532       -1.0264574030       -0.7860165939
 N         -3.6088233798       -0.8003778941        0.7246422333
 H         -4.4232390999       -1.1343069224        1.2061877574
 H         -2.7536898122       -0.6410403902        1.2565592588
 C         -0.1041625858        2.8550950066       -0.6868152910
 O          0.7821645363        2.0213217480       -0.7697678081
 N          0.1564671019        4.1872489087       -0.7115070552
 H          1.0997241992        4.4880176838       -0.8798794012
 H         -0.5698829241        4.8794741738       -0.7342205375
 N         -1.4107726419        2.5210190227       -0.4522665948
 H         -2.1091701869        3.2269298049       -0.6251132718
 H         -1.7065078837        1.5789324253       -0.7167372833
