  53

 O         -2.2932990488        0.8133099017        2.2314492791
 C         -0.8955123437        0.8183925201        2.3093655793
 H         -0.6089948713        1.8389463067        2.5731247701
 H         -0.5500280207        0.1578658408        3.1173074128
 C         -0.2020857034        0.3389713905        1.0300007992
 H         -0.6624430032       -0.6071709402        0.7437684405
 H          0.8586994144        0.1643571812        1.2260021085
 N         -0.2779067469        1.2497123333       -0.1412583915
 C         -1.6634893983        1.6189934777       -0.4654824686
 H         -2.2456781571        0.7217385601       -0.6654774610
 H         -1.6512989866        2.2546797333       -1.3498513842
 H         -2.1213411599        2.1461071338        0.3678278103
 C          0.3071081705        0.5500920266       -1.2977774147
 H         -0.2516677773       -0.3597938932       -1.5062645717
 H          1.3395323709        0.2946815287       -1.0657524623
 H          0.2692206413        1.2119023861       -2.1611997734
 C          0.5157979194        2.4658238533        0.0929740481
 H          1.5404826672        2.1785954049        0.3218946594
 H          0.1015147282        3.0384310027        0.9181476894
 H          0.4916293995        3.0734841249       -0.8102054490
 H         -2.5921283252       -0.0795121988        1.9892164529
 C          3.6726647531       -0.6932438806        0.4263881655
 O          2.8420817943        0.2046119404        0.4880041484
 N          4.9748476082       -0.4391321514        0.1273985579
 H          5.2710084236        0.5210811847        0.1160289878
 H          5.6845476928       -1.1407678283        0.2381496151
 N          3.3587215209       -1.9911995969        0.6439428445
 H          4.0112697761       -2.7124697441        0.3924611363
 H          2.3751054536       -2.2489941303        0.7152619929
 C         -0.3572522924        4.0610558204       -3.7533344839
 O         -0.3775345974        3.2433462440       -2.8441622372
 N         -1.4758843946        4.6929716495       -4.1831825663
 H         -2.3302489823        4.5573359203       -3.6732465388
 H         -1.4408461631        5.4386849848       -4.8536772137
 N          0.7872833035        4.3955394996       -4.3969613780
 H          0.7893694841        4.9893348218       -5.2057730988
 H          1.6253278758        3.8856964074       -4.1823856811
 C          0.4700347440       -2.9083444052        2.3997217208
 O          0.6727997222       -2.7709086732        1.1877294949
 N         -0.7375438726       -2.7064169653        2.9455579922
 H         -1.5114411209       -2.4095431862        2.3509259021
 H         -0.9063017897       -2.8520475863        3.9236830076
 N          1.4705088421       -3.2598845976        3.2387333958
 H          1.3272459071       -3.3709325410        4.2252938817
 H          2.3932694950       -3.3956550893        2.8674226367
 C         -2.6705778813       -2.3775627106        0.0343489411
 O         -2.6579845014       -1.7923715127        1.1199768746
 N         -3.8173847080       -2.5194346601       -0.6691442753
 H         -4.6776539179       -2.2430575902       -0.2288594123
 H         -3.8694425454       -3.0874083521       -1.4952010664
 N         -1.5334305787       -2.8096776813       -0.5494022993
 H         -1.5742732672       -3.4236550506       -1.3436772346
 H         -0.6842713316       -2.8396958162        0.0250246246
