 xtb: 6.6.1 (unknown-commit)
          01102418273D

 53 48  0     0  0            999 V2000
    2.3929   -2.2546    0.6438 O   0  0  0  0  0  0  0  0  0  0  0  0
    1.6227   -2.4531    1.7914 C   0  0  0  0  0  0  0  0  0  0  0  0
    1.3082   -3.4998    1.7736 H   0  0  0  0  0  0  0  0  0  0  0  0
    2.2282   -2.3043    2.6970 H   0  0  0  0  0  0  0  0  0  0  0  0
    0.4134   -1.5128    1.9232 C   0  0  0  0  0  0  0  0  0  0  0  0
    0.7715   -0.4821    1.8812 H   0  0  0  0  0  0  0  0  0  0  0  0
   -0.0375   -1.6805    2.9038 H   0  0  0  0  0  0  0  0  0  0  0  0
   -0.6538   -1.6493    0.8983 N   0  0  0  0  0  0  0  0  0  0  0  0
   -0.1382   -1.3466   -0.4481 C   0  0  0  0  0  0  0  0  0  0  0  0
    0.2535   -0.3316   -0.4717 H   0  0  0  0  0  0  0  0  0  0  0  0
   -0.9639   -1.4307   -1.1519 H   0  0  0  0  0  0  0  0  0  0  0  0
    0.6511   -2.0457   -0.7117 H   0  0  0  0  0  0  0  0  0  0  0  0
   -1.7258   -0.6871    1.2170 C   0  0  0  0  0  0  0  0  0  0  0  0
   -1.3219    0.3203    1.3010 H   0  0  0  0  0  0  0  0  0  0  0  0
   -2.2014   -0.9543    2.1582 H   0  0  0  0  0  0  0  0  0  0  0  0
   -2.4634   -0.7176    0.4153 H   0  0  0  0  0  0  0  0  0  0  0  0
   -1.2389   -2.9991    0.8788 C   0  0  0  0  0  0  0  0  0  0  0  0
   -0.5063   -3.7269    0.5393 H   0  0  0  0  0  0  0  0  0  0  0  0
   -2.0778   -2.9933    0.1830 H   0  0  0  0  0  0  0  0  0  0  0  0
   -1.5912   -3.2754    1.8707 H   0  0  0  0  0  0  0  0  0  0  0  0
    2.7779   -1.3452    0.6492 H   0  0  0  0  0  0  0  0  0  0  0  0
    4.9281   -0.2269    0.1755 C   0  0  0  0  0  0  0  0  0  0  0  0
    3.7818    0.0727    0.5204 O   0  0  0  0  0  0  0  0  0  0  0  0
    5.8943    0.7062    0.0471 N   0  0  0  0  0  0  0  0  0  0  0  0
    5.6886    1.6625    0.2749 H   0  0  0  0  0  0  0  0  0  0  0  0
    6.8381    0.4683   -0.1969 H   0  0  0  0  0  0  0  0  0  0  0  0
    5.2768   -1.4994   -0.0907 N   0  0  0  0  0  0  0  0  0  0  0  0
    6.1970   -1.7477   -0.4043 H   0  0  0  0  0  0  0  0  0  0  0  0
    4.5711   -2.2163   -0.0365 H   0  0  0  0  0  0  0  0  0  0  0  0
    0.8882    1.9959    1.2075 C   0  0  0  0  0  0  0  0  0  0  0  0
   -0.1172    2.0982    1.9119 O   0  0  0  0  0  0  0  0  0  0  0  0
    0.7983    1.7491   -0.1231 N   0  0  0  0  0  0  0  0  0  0  0  0
   -0.1160    1.8836   -0.5641 H   0  0  0  0  0  0  0  0  0  0  0  0
    1.6174    1.8605   -0.6947 H   0  0  0  0  0  0  0  0  0  0  0  0
    2.1405    2.0683    1.7184 N   0  0  0  0  0  0  0  0  0  0  0  0
    2.8955    1.6002    1.2321 H   0  0  0  0  0  0  0  0  0  0  0  0
    2.2089    2.1262    2.7211 H   0  0  0  0  0  0  0  0  0  0  0  0
   -3.4401   -1.2267   -2.4560 C   0  0  0  0  0  0  0  0  0  0  0  0
   -3.0461   -1.6935   -1.3924 O   0  0  0  0  0  0  0  0  0  0  0  0
   -3.2102    0.0539   -2.8131 N   0  0  0  0  0  0  0  0  0  0  0  0
   -2.6242    0.6442   -2.2228 H   0  0  0  0  0  0  0  0  0  0  0  0
   -3.4144    0.3660   -3.7451 H   0  0  0  0  0  0  0  0  0  0  0  0
   -4.1208   -1.9857   -3.3545 N   0  0  0  0  0  0  0  0  0  0  0  0
   -4.5757   -1.5786   -4.1513 H   0  0  0  0  0  0  0  0  0  0  0  0
   -4.4213   -2.8991   -3.0632 H   0  0  0  0  0  0  0  0  0  0  0  0
   -2.6411    2.6327   -0.5181 C   0  0  0  0  0  0  0  0  0  0  0  0
   -1.8563    1.8781   -1.1045 O   0  0  0  0  0  0  0  0  0  0  0  0
   -2.3859    3.1219    0.7008 N   0  0  0  0  0  0  0  0  0  0  0  0
   -1.5573    2.8025    1.2113 H   0  0  0  0  0  0  0  0  0  0  0  0
   -3.0471    3.7063    1.1781 H   0  0  0  0  0  0  0  0  0  0  0  0
   -3.8203    2.9898   -1.0857 N   0  0  0  0  0  0  0  0  0  0  0  0
   -4.4208    3.6745   -0.6646 H   0  0  0  0  0  0  0  0  0  0  0  0
   -4.0035    2.7182   -2.0346 H   0  0  0  0  0  0  0  0  0  0  0  0
  1  2  1  0  0  0  0
  2  3  1  0  0  0  0
  2  4  1  0  0  0  0
  2  5  1  0  0  0  0
  5  6  1  0  0  0  0
  5  7  1  0  0  0  0
  5  8  1  0  0  0  0
  8  9  1  0  0  0  0
  9 10  1  0  0  0  0
  9 11  1  0  0  0  0
  9 12  1  0  0  0  0
  8 13  1  0  0  0  0
 13 14  1  0  0  0  0
 13 15  1  0  0  0  0
 13 16  1  0  0  0  0
  8 17  1  0  0  0  0
 17 18  1  0  0  0  0
 17 19  1  0  0  0  0
 17 20  1  0  0  0  0
  1 21  1  0  0  0  0
 22 23  4  0  0  0  0
 22 24  4  0  0  0  0
 24 25  1  0  0  0  0
 24 26  1  0  0  0  0
 22 27  4  0  0  0  0
 27 28  1  0  0  0  0
 27 29  1  0  0  0  0
 30 31  2  0  0  0  0
 30 32  4  0  0  0  0
 32 33  1  0  0  0  0
 32 34  1  0  0  0  0
 30 35  4  0  0  0  0
 35 36  1  0  0  0  0
 35 37  1  0  0  0  0
 38 39  2  0  0  0  0
 38 40  4  0  0  0  0
 40 41  1  0  0  0  0
 40 42  1  0  0  0  0
 38 43  1  0  0  0  0
 43 44  1  0  0  0  0
 43 45  1  0  0  0  0
 46 47  4  0  0  0  0
 46 48  4  0  0  0  0
 48 49  1  0  0  0  0
 48 50  1  0  0  0  0
 46 51  4  0  0  0  0
 51 52  1  0  0  0  0
 51 53  1  0  0  0  0
M  CHG  1   1   1
M  END
