 xtb: 6.6.1 (unknown-commit)
          01102415403D

 53 48  0     0  0            999 V2000
   -0.4897    1.2234   -1.9309 O   0  0  0  0  0  0  0  0  0  0  0  0
   -0.0798    0.0856   -2.6348 C   0  0  0  0  0  0  0  0  0  0  0  0
   -0.9916   -0.4445   -2.9220 H   0  0  0  0  0  0  0  0  0  0  0  0
    0.4422    0.3787   -3.5568 H   0  0  0  0  0  0  0  0  0  0  0  0
    0.8785   -0.8365   -1.8698 C   0  0  0  0  0  0  0  0  0  0  0  0
    1.7438   -0.2590   -1.5295 H   0  0  0  0  0  0  0  0  0  0  0  0
    1.2205   -1.6027   -2.5688 H   0  0  0  0  0  0  0  0  0  0  0  0
    0.3296   -1.5219   -0.6710 N   0  0  0  0  0  0  0  0  0  0  0  0
    0.0846   -0.5557    0.4122 C   0  0  0  0  0  0  0  0  0  0  0  0
    1.0059   -0.0172    0.6215 H   0  0  0  0  0  0  0  0  0  0  0  0
   -0.2349   -1.1098    1.2931 H   0  0  0  0  0  0  0  0  0  0  0  0
   -0.7079    0.1286    0.1220 H   0  0  0  0  0  0  0  0  0  0  0  0
    1.3367   -2.4843   -0.1903 C   0  0  0  0  0  0  0  0  0  0  0  0
    2.2623   -1.9516    0.0237 H   0  0  0  0  0  0  0  0  0  0  0  0
    1.5187   -3.2491   -0.9426 H   0  0  0  0  0  0  0  0  0  0  0  0
    0.9632   -2.9542    0.7177 H   0  0  0  0  0  0  0  0  0  0  0  0
   -0.9188   -2.2421   -0.9632 C   0  0  0  0  0  0  0  0  0  0  0  0
   -0.7975   -2.8737   -1.8403 H   0  0  0  0  0  0  0  0  0  0  0  0
   -1.7331   -1.5363   -1.1095 H   0  0  0  0  0  0  0  0  0  0  0  0
   -1.1641   -2.8533   -0.0949 H   0  0  0  0  0  0  0  0  0  0  0  0
    0.3080    1.7443   -1.6653 H   0  0  0  0  0  0  0  0  0  0  0  0
    4.3463    0.5177   -0.4370 C   0  0  0  0  0  0  0  0  0  0  0  0
    3.3326   -0.0756   -0.0930 O   0  0  0  0  0  0  0  0  0  0  0  0
    4.3066    1.7870   -0.9173 N   0  0  0  0  0  0  0  0  0  0  0  0
    3.3827    2.1406   -1.1609 H   0  0  0  0  0  0  0  0  0  0  0  0
    5.0960    2.1637   -1.4122 H   0  0  0  0  0  0  0  0  0  0  0  0
    5.5764   -0.0489   -0.3483 N   0  0  0  0  0  0  0  0  0  0  0  0
    6.4141    0.4829   -0.5007 H   0  0  0  0  0  0  0  0  0  0  0  0
    5.6605   -0.9243    0.1376 H   0  0  0  0  0  0  0  0  0  0  0  0
    1.3415    2.9980    0.2177 C   0  0  0  0  0  0  0  0  0  0  0  0
    1.5845    2.5861   -0.9179 O   0  0  0  0  0  0  0  0  0  0  0  0
    0.0816    3.0365    0.7037 N   0  0  0  0  0  0  0  0  0  0  0  0
   -0.6824    2.8085    0.0909 H   0  0  0  0  0  0  0  0  0  0  0  0
   -0.1294    3.4609    1.5881 H   0  0  0  0  0  0  0  0  0  0  0  0
    2.3186    3.4295    1.0404 N   0  0  0  0  0  0  0  0  0  0  0  0
    2.1348    3.6715    1.9970 H   0  0  0  0  0  0  0  0  0  0  0  0
    3.2736    3.2793    0.7606 H   0  0  0  0  0  0  0  0  0  0  0  0
   -2.1463   -2.8751    2.5926 C   0  0  0  0  0  0  0  0  0  0  0  0
   -1.0773   -2.9553    2.0010 O   0  0  0  0  0  0  0  0  0  0  0  0
   -2.3788   -3.5702    3.7377 N   0  0  0  0  0  0  0  0  0  0  0  0
   -1.6983   -4.2576    4.0097 H   0  0  0  0  0  0  0  0  0  0  0  0
   -3.2970   -3.6398    4.1371 H   0  0  0  0  0  0  0  0  0  0  0  0
   -3.1619   -2.0929    2.1623 N   0  0  0  0  0  0  0  0  0  0  0  0
   -3.9793   -1.9688    2.7313 H   0  0  0  0  0  0  0  0  0  0  0  0
   -3.0205   -1.4495    1.3911 H   0  0  0  0  0  0  0  0  0  0  0  0
   -3.7540    0.7605   -0.4865 C   0  0  0  0  0  0  0  0  0  0  0  0
   -3.0448   -0.1133   -0.0026 O   0  0  0  0  0  0  0  0  0  0  0  0
   -3.2416    1.7571   -1.2482 N   0  0  0  0  0  0  0  0  0  0  0  0
   -2.2911    1.6411   -1.5827 H   0  0  0  0  0  0  0  0  0  0  0  0
   -3.8493    2.3521   -1.7829 H   0  0  0  0  0  0  0  0  0  0  0  0
   -5.0897    0.8072   -0.2630 N   0  0  0  0  0  0  0  0  0  0  0  0
   -5.6674    1.5490   -0.6126 H   0  0  0  0  0  0  0  0  0  0  0  0
   -5.5034    0.1288    0.3503 H   0  0  0  0  0  0  0  0  0  0  0  0
  1  2  1  0  0  0  0
  2  3  1  0  0  0  0
  2  4  1  0  0  0  0
  2  5  1  0  0  0  0
  5  6  1  0  0  0  0
  5  7  1  0  0  0  0
  5  8  1  0  0  0  0
  8  9  1  0  0  0  0
  9 10  1  0  0  0  0
  9 11  1  0  0  0  0
  9 12  1  0  0  0  0
  8 13  1  0  0  0  0
 13 14  1  0  0  0  0
 13 15  1  0  0  0  0
 13 16  1  0  0  0  0
  8 17  1  0  0  0  0
 17 18  1  0  0  0  0
 17 19  1  0  0  0  0
 17 20  1  0  0  0  0
  1 21  1  0  0  0  0
 22 23  2  0  0  0  0
 22 24  4  0  0  0  0
 24 25  1  0  0  0  0
 24 26  1  0  0  0  0
 22 27  4  0  0  0  0
 27 28  1  0  0  0  0
 27 29  1  0  0  0  0
 30 31  4  0  0  0  0
 30 32  4  0  0  0  0
 32 33  1  0  0  0  0
 32 34  1  0  0  0  0
 30 35  4  0  0  0  0
 35 36  1  0  0  0  0
 35 37  1  0  0  0  0
 38 39  2  0  0  0  0
 38 40  1  0  0  0  0
 40 41  1  0  0  0  0
 40 42  1  0  0  0  0
 38 43  4  0  0  0  0
 43 44  1  0  0  0  0
 43 45  1  0  0  0  0
 46 47  2  0  0  0  0
 46 48  4  0  0  0  0
 48 49  1  0  0  0  0
 48 50  1  0  0  0  0
 46 51  4  0  0  0  0
 51 52  1  0  0  0  0
 51 53  1  0  0  0  0
M  CHG  1   1   1
M  END
