  53

 O          3.5803891090        0.9233814039        0.9125259202
 C          3.0170855998        2.1979817529        0.9702310261
 H          2.1294140750        2.2090753721        1.6107274039
 H          3.7598363641        2.8740035221        1.4116939966
 C          2.6819531504        2.7914140019       -0.4135873789
 H          3.6105956482        2.8784035332       -0.9812112709
 H          2.2781856373        3.7922765261       -0.2472328254
 N          1.7149906786        2.0300472822       -1.2504187250
 C          1.2927528484        2.8875638244       -2.3730577410
 H          0.7452436670        3.7528447139       -2.0049475088
 H          0.6457916896        2.3055142410       -3.0314516777
 H          2.1600769639        3.2288971015       -2.9347279186
 C          0.5181426796        1.6370883420       -0.4864174513
 H          0.7573446574        0.8781079389        0.2570641386
 H         -0.2154853959        1.2146828086       -1.1702249737
 H          0.0871243025        2.5062298834        0.0058160482
 C          2.3423329710        0.8233691257       -1.8171938035
 H          1.6303573826        0.3425299977       -2.4836008906
 H          2.6235351887        0.1390354511       -1.0218578286
 H          3.2333309980        1.0965242200       -2.3789870614
 H          2.8624549046        0.2673169481        1.1184802343
 C         -0.9361959921       -1.5473120244       -0.6348466300
 O         -1.7845476405       -0.6431763766       -0.5587179969
 N         -0.8334785104       -2.5061179008        0.2937930173
 H         -1.3088444394       -2.3718918315        1.1899499575
 H         -0.0491699870       -3.1330745488        0.2803900204
 N         -0.0846905201       -1.5973947704       -1.6826565369
 H          0.5031718020       -2.3966654720       -1.8311256377
 H         -0.2186569825       -0.9383740853       -2.4436248867
 C         -1.6401937666        0.6842796638       -3.8362834098
 O         -0.4534498865        0.5941887518       -3.5020873687
 N         -1.9861641480        1.1443331029       -5.0636714569
 H         -1.2605691718        1.2710127543       -5.7469046720
 H         -2.9349699434        1.1099680685       -5.3895211979
 N         -2.6343762198        0.3876640062       -2.9892384531
 H         -3.5961116500        0.4299889783       -3.2712134649
 H         -2.4017502442        0.0316920688       -2.0556927299
 C         -2.9188275034       -1.1916083628        2.8279544412
 O         -1.9347285777       -1.9353127925        2.7910909935
 N         -3.6401317506       -1.0537632436        3.9698963167
 H         -3.4400267847       -1.6822664054        4.7279715896
 H         -4.5250472269       -0.5797431625        3.9777455414
 N         -3.3029658799       -0.4616341303        1.7726115019
 H         -4.1071677265        0.1363078629        1.8166642504
 H         -2.7639266436       -0.5085365568        0.9026784787
 C          1.7719026099       -1.1808181149        2.6782421538
 O          1.5401724470       -0.5828588027        1.6193158886
 N          0.8182664592       -1.8087336379        3.3750452347
 H         -0.1533165133       -1.7893207202        3.0772266581
 H          1.0334695418       -2.2853937687        4.2316182568
 N          3.0278470596       -1.2335520048        3.1834998107
 H          3.2340522675       -1.7013575453        4.0465906025
 H          3.7736860423       -0.7550165771        2.7075149465
