 xtb: 6.6.1 (unknown-commit)
          01102418243D

 53 48  0     0  0            999 V2000
    0.8981   -0.8166    2.6344 O   0  0  0  0  0  0  0  0  0  0  0  0
   -0.4188   -0.5916    2.1616 C   0  0  0  0  0  0  0  0  0  0  0  0
   -1.1518   -0.8710    2.9292 H   0  0  0  0  0  0  0  0  0  0  0  0
   -0.5577    0.4700    1.9241 H   0  0  0  0  0  0  0  0  0  0  0  0
   -0.6445   -1.3361    0.8525 C   0  0  0  0  0  0  0  0  0  0  0  0
    0.2162   -1.1542    0.2087 H   0  0  0  0  0  0  0  0  0  0  0  0
   -1.5385   -0.9274    0.3780 H   0  0  0  0  0  0  0  0  0  0  0  0
   -0.8151   -2.8116    0.9074 N   0  0  0  0  0  0  0  0  0  0  0  0
    0.3790   -3.4541    1.4775 C   0  0  0  0  0  0  0  0  0  0  0  0
    1.2388   -3.1866    0.8617 H   0  0  0  0  0  0  0  0  0  0  0  0
    0.2564   -4.5349    1.4805 H   0  0  0  0  0  0  0  0  0  0  0  0
    0.5517   -3.1041    2.4913 H   0  0  0  0  0  0  0  0  0  0  0  0
   -0.9753   -3.2639   -0.4876 C   0  0  0  0  0  0  0  0  0  0  0  0
   -0.0744   -3.0106   -1.0451 H   0  0  0  0  0  0  0  0  0  0  0  0
   -1.8360   -2.7682   -0.9330 H   0  0  0  0  0  0  0  0  0  0  0  0
   -1.1208   -4.3415   -0.5146 H   0  0  0  0  0  0  0  0  0  0  0  0
   -2.0205   -3.1732    1.6649 C   0  0  0  0  0  0  0  0  0  0  0  0
   -2.8780   -2.6499    1.2441 H   0  0  0  0  0  0  0  0  0  0  0  0
   -1.9109   -2.9054    2.7131 H   0  0  0  0  0  0  0  0  0  0  0  0
   -2.1919   -4.2462    1.6004 H   0  0  0  0  0  0  0  0  0  0  0  0
    1.0877   -0.2173    3.3631 H   0  0  0  0  0  0  0  0  0  0  0  0
    2.5835   -0.9836   -0.8413 C   0  0  0  0  0  0  0  0  0  0  0  0
    1.8879   -1.9967   -0.8385 O   0  0  0  0  0  0  0  0  0  0  0  0
    3.2170   -0.5533   -1.9714 N   0  0  0  0  0  0  0  0  0  0  0  0
    3.3512   -1.2328   -2.7014 H   0  0  0  0  0  0  0  0  0  0  0  0
    3.9173    0.1638   -1.8841 H   0  0  0  0  0  0  0  0  0  0  0  0
    2.7417   -0.2026    0.2454 N   0  0  0  0  0  0  0  0  0  0  0  0
    3.0582    0.7527    0.1355 H   0  0  0  0  0  0  0  0  0  0  0  0
    2.2048   -0.4258    1.0714 H   0  0  0  0  0  0  0  0  0  0  0  0
    2.3652    3.4436    0.4539 C   0  0  0  0  0  0  0  0  0  0  0  0
    2.8512    2.5990   -0.3015 O   0  0  0  0  0  0  0  0  0  0  0  0
    1.0824    3.3839    0.8601 N   0  0  0  0  0  0  0  0  0  0  0  0
    0.4547    2.7125    0.4091 H   0  0  0  0  0  0  0  0  0  0  0  0
    0.6712    4.1500    1.3621 H   0  0  0  0  0  0  0  0  0  0  0  0
    3.1219    4.4454    0.9571 N   0  0  0  0  0  0  0  0  0  0  0  0
    2.7434    5.1700    1.5385 H   0  0  0  0  0  0  0  0  0  0  0  0
    4.0803    4.5140    0.6653 H   0  0  0  0  0  0  0  0  0  0  0  0
   -3.9144    0.1664   -0.4523 C   0  0  0  0  0  0  0  0  0  0  0  0
   -3.2216   -0.8200   -0.7222 O   0  0  0  0  0  0  0  0  0  0  0  0
   -5.2659    0.0905   -0.4438 N   0  0  0  0  0  0  0  0  0  0  0  0
   -5.6989   -0.7519   -0.7784 H   0  0  0  0  0  0  0  0  0  0  0  0
   -5.8426    0.9035   -0.3262 H   0  0  0  0  0  0  0  0  0  0  0  0
   -3.3646    1.3376   -0.0909 N   0  0  0  0  0  0  0  0  0  0  0  0
   -3.9302    2.1550    0.0470 H   0  0  0  0  0  0  0  0  0  0  0  0
   -2.3489    1.4512   -0.1585 H   0  0  0  0  0  0  0  0  0  0  0  0
   -0.1744    1.0433   -1.4968 C   0  0  0  0  0  0  0  0  0  0  0  0
   -0.5823    1.4984   -0.4139 O   0  0  0  0  0  0  0  0  0  0  0  0
    0.9672    1.4703   -2.0591 N   0  0  0  0  0  0  0  0  0  0  0  0
    1.6435    1.9729   -1.4809 H   0  0  0  0  0  0  0  0  0  0  0  0
    1.3384    0.9871   -2.8582 H   0  0  0  0  0  0  0  0  0  0  0  0
   -0.8855    0.1172   -2.1685 N   0  0  0  0  0  0  0  0  0  0  0  0
   -0.5720   -0.2383   -3.0523 H   0  0  0  0  0  0  0  0  0  0  0  0
   -1.7602   -0.2249   -1.7859 H   0  0  0  0  0  0  0  0  0  0  0  0
  1  2  1  0  0  0  0
  2  3  1  0  0  0  0
  2  4  1  0  0  0  0
  2  5  1  0  0  0  0
  5  6  1  0  0  0  0
  5  7  1  0  0  0  0
  5  8  1  0  0  0  0
  8  9  1  0  0  0  0
  9 10  1  0  0  0  0
  9 11  1  0  0  0  0
  9 12  1  0  0  0  0
  8 13  1  0  0  0  0
 13 14  1  0  0  0  0
 13 15  1  0  0  0  0
 13 16  1  0  0  0  0
  8 17  1  0  0  0  0
 17 18  1  0  0  0  0
 17 19  1  0  0  0  0
 17 20  1  0  0  0  0
  1 21  1  0  0  0  0
 22 23  2  0  0  0  0
 22 24  1  0  0  0  0
 24 25  1  0  0  0  0
 24 26  1  0  0  0  0
 22 27  4  0  0  0  0
 27 28  1  0  0  0  0
 27 29  1  0  0  0  0
 30 31  4  0  0  0  0
 30 32  4  0  0  0  0
 32 33  1  0  0  0  0
 32 34  1  0  0  0  0
 30 35  4  0  0  0  0
 35 36  1  0  0  0  0
 35 37  1  0  0  0  0
 38 39  4  0  0  0  0
 38 40  4  0  0  0  0
 40 41  1  0  0  0  0
 40 42  1  0  0  0  0
 38 43  4  0  0  0  0
 43 44  1  0  0  0  0
 43 45  1  0  0  0  0
 46 47  4  0  0  0  0
 46 48  4  0  0  0  0
 48 49  1  0  0  0  0
 48 50  1  0  0  0  0
 46 51  4  0  0  0  0
 51 52  1  0  0  0  0
 51 53  1  0  0  0  0
M  CHG  1   1   1
M  END
