53
 xtb: 6.6.1 (unknown-commit)
O            0.35174934425796       -0.58147063563696       -1.51158653749777
C            0.70021356397795       -1.85262515487322       -1.05855231175668
H            0.51541631121763       -2.53862337823786       -1.89321066818314
H            1.76942502871170       -1.89539745381240       -0.82417764026841
C           -0.04127597585412       -2.29875705098849        0.21158180876965
H            0.16106044895310       -1.58970225643161        1.01628647370691
H            0.34783177418816       -3.27848352016338        0.48708929744027
N           -1.52088689532490       -2.40366134844770        0.10286001477985
C           -2.02994589763382       -3.03347783404322        1.33326077565078
H           -1.71630527239004       -2.43976164700577        2.18511086083605
H           -1.63593523284463       -4.04619128904313        1.42342774334609
H           -3.11530437555163       -3.07228178629838        1.27821734950664
C           -1.94042738329227       -3.20672425395367       -1.05475605377839
H           -3.02465622597815       -3.32750242256216       -1.01268642087393
H           -1.46034256185240       -4.17655187642753       -1.04112403702186
H           -1.68933144375644       -2.68645557276166       -1.98245323609036
C           -2.12692509210432       -1.06430370998492        0.00214907307822
H           -1.75012102990362       -0.54927495014540       -0.87636839033048
H           -1.86071894901952       -0.49784752654697        0.89661735143291
H           -3.20778930321955       -1.17693242419454       -0.05516416332864
H            0.65847245099899        0.07595653635135       -0.83406095720651
C            5.54990273127202        4.25712499408914       -2.43833184320145
O            4.80525976609498        3.50501460966124       -1.82491049008673
N            5.14032365984969        4.94179695803173       -3.53451580781995
H            4.16190755330103        4.93137394364781       -3.76226706551932
H            5.71051640175459        5.65523144543373       -3.95280888741484
N            6.83681260093162        4.46001725072775       -2.06568317043476
H            7.47978364835276        4.97051594403570       -2.64095963711816
H            7.21819832834003        3.87142888486981       -1.34408179662470
C            2.35818010419782        1.73799171967943       -0.29614262545439
O            1.48239477120986        1.05814702756337        0.26064421478504
N            2.50943386153539        1.75983183015824       -1.62957876529600
H            1.91156214368298        1.19842590118130       -2.20920463597351
H            3.25735628638872        2.30963747301854       -2.02680535301440
N            3.20852108295125        2.52186811720671        0.39189157748261
H            3.93957326847563        3.00209396802930       -0.10792887799750
H            3.21630396731411        2.49241736006552        1.39621866033849
C           -6.08246566134217       -2.88784739766435       -0.14823992092082
O           -4.86733908303175       -2.77980498202842       -0.06685059702236
N           -6.89986683574585       -1.80102280244654       -0.25969199271358
H           -6.46962365102244       -0.93185744619367       -0.57333086952806
H           -7.87453740482246       -1.92711948653187       -0.54599999298987
N           -6.70138831353005       -4.10461177937268       -0.13757578756769
H           -7.71187609794350       -4.15438033406564        0.02025011572569
H           -6.17004740112183       -4.88233625046508        0.25209003348413
C           -0.24591321474101        0.28775133632132        3.42552987921284
O           -0.67481187228962       -0.64706373730111        2.76044003534148
N           -0.71857167870317        0.54098117405035        4.67838878183837
H           -1.29600799777633       -0.16837086945989        5.10642598861374
H           -0.24414094709093        1.17413373646144        5.29414502270182
N            0.70396139124934        1.12879202484091        2.96989626477774
H            0.91470006418111        1.96539551610508        3.47656432314447
H            0.97259835033370        1.07489622449043        1.98672155920340
