 xtb: 6.6.1 (unknown-commit)
          01102415373D

 53 48  0     0  0            999 V2000
    0.3450   -0.5739   -1.5152 O   0  0  0  0  0  0  0  0  0  0  0  0
    0.6963   -1.8471   -1.0663 C   0  0  0  0  0  0  0  0  0  0  0  0
    0.5139   -2.5364   -1.8959 H   0  0  0  0  0  0  0  0  0  0  0  0
    1.7685   -1.8938   -0.8272 H   0  0  0  0  0  0  0  0  0  0  0  0
   -0.0419   -2.2977    0.2041 C   0  0  0  0  0  0  0  0  0  0  0  0
    0.1616   -1.5903    1.0148 H   0  0  0  0  0  0  0  0  0  0  0  0
    0.3477   -3.2785    0.4835 H   0  0  0  0  0  0  0  0  0  0  0  0
   -1.5220   -2.4014    0.0986 N   0  0  0  0  0  0  0  0  0  0  0  0
   -2.0280   -3.0369    1.3276 C   0  0  0  0  0  0  0  0  0  0  0  0
   -1.7150   -2.4420    2.1840 H   0  0  0  0  0  0  0  0  0  0  0  0
   -1.6355   -4.0474    1.4201 H   0  0  0  0  0  0  0  0  0  0  0  0
   -3.1148   -3.0730    1.2772 H   0  0  0  0  0  0  0  0  0  0  0  0
   -1.9446   -3.1991   -1.0614 C   0  0  0  0  0  0  0  0  0  0  0  0
   -3.0258   -3.3254   -1.0140 H   0  0  0  0  0  0  0  0  0  0  0  0
   -1.4616   -4.1744   -1.0448 H   0  0  0  0  0  0  0  0  0  0  0  0
   -1.6912   -2.6830   -1.9838 H   0  0  0  0  0  0  0  0  0  0  0  0
   -2.1277   -1.0615    0.0061 C   0  0  0  0  0  0  0  0  0  0  0  0
   -1.7512   -0.5474   -0.8749 H   0  0  0  0  0  0  0  0  0  0  0  0
   -1.8600   -0.4982    0.8982 H   0  0  0  0  0  0  0  0  0  0  0  0
   -3.2081   -1.1758   -0.0530 H   0  0  0  0  0  0  0  0  0  0  0  0
    0.6571    0.0773   -0.8346 H   0  0  0  0  0  0  0  0  0  0  0  0
    5.5489    4.2601   -2.4342 C   0  0  0  0  0  0  0  0  0  0  0  0
    4.8039    3.5075   -1.8215 O   0  0  0  0  0  0  0  0  0  0  0  0
    5.1386    4.9490   -3.5273 N   0  0  0  0  0  0  0  0  0  0  0  0
    4.1613    4.9339   -3.7599 H   0  0  0  0  0  0  0  0  0  0  0  0
    5.7101    5.6574   -3.9505 H   0  0  0  0  0  0  0  0  0  0  0  0
    6.8365    4.4603   -2.0625 N   0  0  0  0  0  0  0  0  0  0  0  0
    7.4797    4.9708   -2.6399 H   0  0  0  0  0  0  0  0  0  0  0  0
    7.2182    3.8708   -1.3439 H   0  0  0  0  0  0  0  0  0  0  0  0
    2.3563    1.7392   -0.2954 C   0  0  0  0  0  0  0  0  0  0  0  0
    1.4796    1.0593    0.2602 O   0  0  0  0  0  0  0  0  0  0  0  0
    2.5060    1.7650   -1.6289 N   0  0  0  0  0  0  0  0  0  0  0  0
    1.9102    1.2006   -2.2093 H   0  0  0  0  0  0  0  0  0  0  0  0
    3.2565    2.3111   -2.0264 H   0  0  0  0  0  0  0  0  0  0  0  0
    3.2086    2.5196    0.3941 N   0  0  0  0  0  0  0  0  0  0  0  0
    3.9396    3.0016   -0.1071 H   0  0  0  0  0  0  0  0  0  0  0  0
    3.2166    2.4910    1.3968 H   0  0  0  0  0  0  0  0  0  0  0  0
   -6.0839   -2.8863   -0.1482 C   0  0  0  0  0  0  0  0  0  0  0  0
   -4.8692   -2.7770   -0.0649 O   0  0  0  0  0  0  0  0  0  0  0  0
   -6.8880   -1.8300   -0.4192 N   0  0  0  0  0  0  0  0  0  0  0  0
   -6.4634   -0.9494   -0.6481 H   0  0  0  0  0  0  0  0  0  0  0  0
   -7.8709   -1.9390   -0.5887 H   0  0  0  0  0  0  0  0  0  0  0  0
   -6.7158   -4.0738    0.0197 N   0  0  0  0  0  0  0  0  0  0  0  0
   -7.7161   -4.1421    0.0616 H   0  0  0  0  0  0  0  0  0  0  0  0
   -6.1770   -4.8637    0.3263 H   0  0  0  0  0  0  0  0  0  0  0  0
   -0.2381    0.2765    3.4281 C   0  0  0  0  0  0  0  0  0  0  0  0
   -0.6657   -0.6592    2.7621 O   0  0  0  0  0  0  0  0  0  0  0  0
   -0.7065    0.5241    4.6834 N   0  0  0  0  0  0  0  0  0  0  0  0
   -1.2921   -0.1735    5.1077 H   0  0  0  0  0  0  0  0  0  0  0  0
   -0.2410    1.1696    5.2955 H   0  0  0  0  0  0  0  0  0  0  0  0
    0.7089    1.1202    2.9720 N   0  0  0  0  0  0  0  0  0  0  0  0
    0.9158    1.9629    3.4775 H   0  0  0  0  0  0  0  0  0  0  0  0
    0.9731    1.0735    1.9870 H   0  0  0  0  0  0  0  0  0  0  0  0
  1  2  1  0  0  0  0
  2  3  1  0  0  0  0
  2  4  1  0  0  0  0
  2  5  1  0  0  0  0
  5  6  1  0  0  0  0
  5  7  1  0  0  0  0
  5  8  1  0  0  0  0
  8  9  1  0  0  0  0
  9 10  1  0  0  0  0
  9 11  1  0  0  0  0
  9 12  1  0  0  0  0
  8 13  1  0  0  0  0
 13 14  1  0  0  0  0
 13 15  1  0  0  0  0
 13 16  1  0  0  0  0
  8 17  1  0  0  0  0
 17 18  1  0  0  0  0
 17 19  1  0  0  0  0
 17 20  1  0  0  0  0
  1 21  1  0  0  0  0
 22 23  2  0  0  0  0
 22 24  4  0  0  0  0
 24 25  1  0  0  0  0
 24 26  1  0  0  0  0
 22 27  4  0  0  0  0
 27 28  1  0  0  0  0
 27 29  1  0  0  0  0
 30 31  4  0  0  0  0
 30 32  4  0  0  0  0
 32 33  1  0  0  0  0
 32 34  1  0  0  0  0
 30 35  4  0  0  0  0
 35 36  1  0  0  0  0
 35 37  1  0  0  0  0
 38 39  2  0  0  0  0
 38 40  4  0  0  0  0
 40 41  1  0  0  0  0
 40 42  1  0  0  0  0
 38 43  4  0  0  0  0
 43 44  1  0  0  0  0
 43 45  1  0  0  0  0
 46 47  2  0  0  0  0
 46 48  1  0  0  0  0
 48 49  1  0  0  0  0
 48 50  1  0  0  0  0
 46 51  4  0  0  0  0
 51 52  1  0  0  0  0
 51 53  1  0  0  0  0
M  CHG  1   1   1
M  END
