  53

 O         -0.1714580754        1.5891485078        1.7352046553
 C          0.7229034806        0.6540422247        1.1731290722
 H          1.6967802662        1.1453072292        1.1623280833
 H          0.7880952890       -0.2321198726        1.8167907678
 C          0.3049727045        0.1837100761       -0.2199663431
 H         -0.7854911454        0.1211254390       -0.2486627947
 H          0.7161280829       -0.8091466179       -0.4171673881
 N          0.7206667524        1.0490531945       -1.3564294786
 C          0.2863846572        2.4358873832       -1.1387178695
 H         -0.7742189639        2.4545520473       -0.8962462638
 H          0.4630117325        3.0238196679       -2.0371434508
 H          0.8595268306        2.8686703793       -0.3196097658
 C          0.0811178476        0.5042401668       -2.5653448991
 H         -1.0008638939        0.5552698959       -2.4658903787
 H          0.3878073141       -0.5342833289       -2.6864637801
 H          0.3847094473        1.0764858108       -3.4394809610
 C          2.1805801561        1.0013204766       -1.5384328286
 H          2.4508834717        1.5264385696       -2.4520832877
 H          2.4922937980       -0.0383585870       -1.6153356398
 H          2.6808938874        1.4906494332       -0.7060517191
 H         -1.0465177968        1.1771410443        1.7929219300
 C          1.4378107330       -3.3823163039       -1.3977886169
 O          1.4548844896       -2.1957129883       -1.7034463359
 N          0.7030658954       -3.8584476456       -0.3683537393
 H          0.0327956840       -3.2564009499        0.0920131320
 H          0.6176672506       -4.8471766256       -0.2171047199
 N          2.1629662836       -4.3033821650       -2.0838201228
 H          2.2746006020       -5.2431386613       -1.7490428395
 H          2.8221431697       -3.9689988530       -2.7643507691
 C          2.6636019641        3.8198231685        1.7219111295
 O          2.7371772312        3.0596076338        0.7647542861
 N          1.5398502851        3.9184273017        2.4721848338
 H          0.8159325798        3.2279266303        2.3300576801
 H          1.5372023861        4.4320715986        3.3345581356
 N          3.6970549533        4.6181248686        2.0862375933
 H          3.5936751199        5.3360961121        2.7798113662
 H          4.4956314214        4.6603316709        1.4782807799
 C         -1.7878306050       -1.7021268057        1.9921163315
 O         -1.3699572082       -2.2793770590        0.9896620332
 N         -2.3811654544       -0.4832588493        1.9258663059
 H         -2.6739564186       -0.1648794307        0.9947342173
 H         -2.9270286989       -0.1608697836        2.7070250243
 N         -1.6200799940       -2.2231644004        3.2270613177
 H         -1.9435698325       -1.7612707726        4.0570958753
 H         -1.1480118723       -3.1045086260        3.3218666651
 C         -3.2795522994       -0.5615806634       -1.4726297063
 O         -2.8960714407        0.3172859620       -0.6957468758
 N         -2.8860810106       -1.8381145243       -1.3437777427
 H         -2.2786052546       -2.0877818808       -0.5631739081
 H         -3.1958562178       -2.5549933410       -1.9730197028
 N         -4.0645395971       -0.2608697688       -2.5371385142
 H         -4.4993039775       -0.9811033431       -3.0853379928
 H         -4.4670666120        0.6595497234       -2.5757719436
