 xtb: 6.6.1 (unknown-commit)
          01102418233D

 53 48  0     0  0            999 V2000
    0.2723    0.3482    3.8358 O   0  0  0  0  0  0  0  0  0  0  0  0
   -1.0409    0.1401    3.3354 C   0  0  0  0  0  0  0  0  0  0  0  0
   -1.6051   -0.5079    4.0154 H   0  0  0  0  0  0  0  0  0  0  0  0
   -1.5699    1.0986    3.2699 H   0  0  0  0  0  0  0  0  0  0  0  0
   -1.0100   -0.4284    1.9223 C   0  0  0  0  0  0  0  0  0  0  0  0
   -0.3974    0.2115    1.2866 H   0  0  0  0  0  0  0  0  0  0  0  0
   -2.0334   -0.4231    1.5351 H   0  0  0  0  0  0  0  0  0  0  0  0
   -0.5125   -1.8214    1.7666 N   0  0  0  0  0  0  0  0  0  0  0  0
    0.9110   -1.9223    2.1214 C   0  0  0  0  0  0  0  0  0  0  0  0
    1.4848   -1.2304    1.5013 H   0  0  0  0  0  0  0  0  0  0  0  0
    1.2636   -2.9376    1.9533 H   0  0  0  0  0  0  0  0  0  0  0  0
    1.0576   -1.6593    3.1656 H   0  0  0  0  0  0  0  0  0  0  0  0
   -0.6844   -2.1734    0.3462 C   0  0  0  0  0  0  0  0  0  0  0  0
   -0.1700   -1.4487   -0.2794 H   0  0  0  0  0  0  0  0  0  0  0  0
   -1.7471   -2.1484    0.1083 H   0  0  0  0  0  0  0  0  0  0  0  0
   -0.2870   -3.1677    0.1568 H   0  0  0  0  0  0  0  0  0  0  0  0
   -1.3122   -2.7585    2.5706 C   0  0  0  0  0  0  0  0  0  0  0  0
   -1.1388   -2.6005    3.6319 H   0  0  0  0  0  0  0  0  0  0  0  0
   -1.0325   -3.7812    2.3259 H   0  0  0  0  0  0  0  0  0  0  0  0
   -2.3661   -2.6098    2.3368 H   0  0  0  0  0  0  0  0  0  0  0  0
    0.2200    0.7976    4.6856 H   0  0  0  0  0  0  0  0  0  0  0  0
   -0.7708    0.9724   -1.9691 C   0  0  0  0  0  0  0  0  0  0  0  0
   -1.4278    0.6575   -0.9786 O   0  0  0  0  0  0  0  0  0  0  0  0
    0.5216    0.6102   -2.1152 N   0  0  0  0  0  0  0  0  0  0  0  0
    1.0107    0.3220   -1.2736 H   0  0  0  0  0  0  0  0  0  0  0  0
    1.1138    1.0702   -2.7914 H   0  0  0  0  0  0  0  0  0  0  0  0
   -1.3142    1.6627   -3.0023 N   0  0  0  0  0  0  0  0  0  0  0  0
   -0.7856    1.8680   -3.8299 H   0  0  0  0  0  0  0  0  0  0  0  0
   -2.2950    1.8746   -2.9929 H   0  0  0  0  0  0  0  0  0  0  0  0
    2.1563    1.5369    0.6389 C   0  0  0  0  0  0  0  0  0  0  0  0
    2.0116    0.3459    0.3151 O   0  0  0  0  0  0  0  0  0  0  0  0
    2.5890    2.4543   -0.2326 N   0  0  0  0  0  0  0  0  0  0  0  0
    2.7887    2.1834   -1.2010 H   0  0  0  0  0  0  0  0  0  0  0  0
    2.7001    3.4159    0.0309 H   0  0  0  0  0  0  0  0  0  0  0  0
    1.8635    1.9511    1.8894 N   0  0  0  0  0  0  0  0  0  0  0  0
    2.0021    2.9049    2.1673 H   0  0  0  0  0  0  0  0  0  0  0  0
    1.5087    1.2929    2.5682 H   0  0  0  0  0  0  0  0  0  0  0  0
    3.8938    0.5559   -2.7947 C   0  0  0  0  0  0  0  0  0  0  0  0
    3.1558    1.5408   -2.8034 O   0  0  0  0  0  0  0  0  0  0  0  0
    3.9082   -0.3163   -1.7680 N   0  0  0  0  0  0  0  0  0  0  0  0
    3.2701   -0.1740   -0.9900 H   0  0  0  0  0  0  0  0  0  0  0  0
    4.4963   -1.1286   -1.7744 H   0  0  0  0  0  0  0  0  0  0  0  0
    4.7158    0.2840   -3.8354 N   0  0  0  0  0  0  0  0  0  0  0  0
    5.3935   -0.4552   -3.8040 H   0  0  0  0  0  0  0  0  0  0  0  0
    4.7846    0.9629   -4.5726 H   0  0  0  0  0  0  0  0  0  0  0  0
   -4.4887   -1.0013    0.2220 C   0  0  0  0  0  0  0  0  0  0  0  0
   -3.6759   -1.5391    0.9704 O   0  0  0  0  0  0  0  0  0  0  0  0
   -5.7912   -1.3837    0.2047 N   0  0  0  0  0  0  0  0  0  0  0  0
   -6.1000   -2.0526    0.8868 H   0  0  0  0  0  0  0  0  0  0  0  0
   -6.4871   -0.8865   -0.3198 H   0  0  0  0  0  0  0  0  0  0  0  0
   -4.1439   -0.0133   -0.6244 N   0  0  0  0  0  0  0  0  0  0  0  0
   -4.8130    0.3624   -1.2710 H   0  0  0  0  0  0  0  0  0  0  0  0
   -3.1634    0.2505   -0.7248 H   0  0  0  0  0  0  0  0  0  0  0  0
  1  2  1  0  0  0  0
  2  3  1  0  0  0  0
  2  4  1  0  0  0  0
  2  5  1  0  0  0  0
  5  6  1  0  0  0  0
  5  7  1  0  0  0  0
  5  8  1  0  0  0  0
  8  9  1  0  0  0  0
  9 10  1  0  0  0  0
  9 11  1  0  0  0  0
  9 12  1  0  0  0  0
  8 13  1  0  0  0  0
 13 14  1  0  0  0  0
 13 15  1  0  0  0  0
 13 16  1  0  0  0  0
  8 17  1  0  0  0  0
 17 18  1  0  0  0  0
 17 19  1  0  0  0  0
 17 20  1  0  0  0  0
  1 21  1  0  0  0  0
 22 23  2  0  0  0  0
 22 24  4  0  0  0  0
 24 25  1  0  0  0  0
 24 26  1  0  0  0  0
 22 27  4  0  0  0  0
 27 28  1  0  0  0  0
 27 29  1  0  0  0  0
 30 31  4  0  0  0  0
 30 32  4  0  0  0  0
 32 33  1  0  0  0  0
 32 34  1  0  0  0  0
 30 35  4  0  0  0  0
 35 36  1  0  0  0  0
 35 37  1  0  0  0  0
 38 39  2  0  0  0  0
 38 40  4  0  0  0  0
 40 41  1  0  0  0  0
 40 42  1  0  0  0  0
 38 43  4  0  0  0  0
 43 44  1  0  0  0  0
 43 45  1  0  0  0  0
 46 47  2  0  0  0  0
 46 48  1  0  0  0  0
 48 49  1  0  0  0  0
 48 50  1  0  0  0  0
 46 51  4  0  0  0  0
 51 52  1  0  0  0  0
 51 53  1  0  0  0  0
M  CHG  1   1   1
M  END
