 xtb: 6.6.1 (unknown-commit)
          01102418263D

 53 48  0     0  0            999 V2000
    0.1450    0.5899    2.5917 O   0  0  0  0  0  0  0  0  0  0  0  0
   -1.1008    0.8306    2.0041 C   0  0  0  0  0  0  0  0  0  0  0  0
   -1.8384    0.7746    2.8086 H   0  0  0  0  0  0  0  0  0  0  0  0
   -1.1456    1.8471    1.5870 H   0  0  0  0  0  0  0  0  0  0  0  0
   -1.4748   -0.1138    0.8525 C   0  0  0  0  0  0  0  0  0  0  0  0
   -0.7801    0.0173    0.0191 H   0  0  0  0  0  0  0  0  0  0  0  0
   -2.4859    0.1482    0.5359 H   0  0  0  0  0  0  0  0  0  0  0  0
   -1.4809   -1.5694    1.1681 N   0  0  0  0  0  0  0  0  0  0  0  0
   -0.1049   -2.0614    1.3432 C   0  0  0  0  0  0  0  0  0  0  0  0
   -0.1187   -3.1300    1.5482 H   0  0  0  0  0  0  0  0  0  0  0  0
    0.3707   -1.5373    2.1694 H   0  0  0  0  0  0  0  0  0  0  0  0
    0.4475   -1.8745    0.4227 H   0  0  0  0  0  0  0  0  0  0  0  0
   -2.0874   -2.2607    0.0168 C   0  0  0  0  0  0  0  0  0  0  0  0
   -1.5071   -2.0328   -0.8762 H   0  0  0  0  0  0  0  0  0  0  0  0
   -3.1136   -1.9180   -0.1024 H   0  0  0  0  0  0  0  0  0  0  0  0
   -2.0815   -3.3355    0.1845 H   0  0  0  0  0  0  0  0  0  0  0  0
   -2.2820   -1.8447    2.3687 C   0  0  0  0  0  0  0  0  0  0  0  0
   -3.2738   -1.4153    2.2288 H   0  0  0  0  0  0  0  0  0  0  0  0
   -1.8049   -1.4139    3.2454 H   0  0  0  0  0  0  0  0  0  0  0  0
   -2.3716   -2.9199    2.5116 H   0  0  0  0  0  0  0  0  0  0  0  0
    0.8472    0.7364    1.9106 H   0  0  0  0  0  0  0  0  0  0  0  0
    4.2214   -0.1883   -1.7798 C   0  0  0  0  0  0  0  0  0  0  0  0
    4.1426    1.0184   -1.9972 O   0  0  0  0  0  0  0  0  0  0  0  0
    3.6806   -0.7602   -0.6836 N   0  0  0  0  0  0  0  0  0  0  0  0
    3.0688   -0.1961   -0.1011 H   0  0  0  0  0  0  0  0  0  0  0  0
    3.6333   -1.7584   -0.5928 H   0  0  0  0  0  0  0  0  0  0  0  0
    4.8461   -1.0219   -2.6510 N   0  0  0  0  0  0  0  0  0  0  0  0
    5.0689   -1.9674   -2.3962 H   0  0  0  0  0  0  0  0  0  0  0  0
    5.3949   -0.5973   -3.3788 H   0  0  0  0  0  0  0  0  0  0  0  0
    2.7112    2.1471    1.0492 C   0  0  0  0  0  0  0  0  0  0  0  0
    2.0435    1.1306    0.7782 O   0  0  0  0  0  0  0  0  0  0  0  0
    3.6290    2.6179    0.2052 N   0  0  0  0  0  0  0  0  0  0  0  0
    3.8327    2.0968   -0.6575 H   0  0  0  0  0  0  0  0  0  0  0  0
    4.1856    3.4223    0.4293 H   0  0  0  0  0  0  0  0  0  0  0  0
    2.4926    2.8177    2.1998 N   0  0  0  0  0  0  0  0  0  0  0  0
    3.0540    3.6042    2.4702 H   0  0  0  0  0  0  0  0  0  0  0  0
    1.8368    2.4416    2.8643 H   0  0  0  0  0  0  0  0  0  0  0  0
    0.8785   -0.3030   -2.3624 C   0  0  0  0  0  0  0  0  0  0  0  0
    0.2972   -1.0733   -1.6039 O   0  0  0  0  0  0  0  0  0  0  0  0
    1.1745   -0.6496   -3.6398 N   0  0  0  0  0  0  0  0  0  0  0  0
    0.7885   -1.5005   -4.0086 H   0  0  0  0  0  0  0  0  0  0  0  0
    1.5515    0.0200   -4.2857 H   0  0  0  0  0  0  0  0  0  0  0  0
    1.2300    0.9526   -1.9908 N   0  0  0  0  0  0  0  0  0  0  0  0
    1.9318    1.4320   -2.5337 H   0  0  0  0  0  0  0  0  0  0  0  0
    1.3122    1.1061   -0.9906 H   0  0  0  0  0  0  0  0  0  0  0  0
   -5.7605   -0.1320    0.5501 C   0  0  0  0  0  0  0  0  0  0  0  0
   -4.6151   -0.5087    0.7587 O   0  0  0  0  0  0  0  0  0  0  0  0
   -6.1657    0.3035   -0.6667 N   0  0  0  0  0  0  0  0  0  0  0  0
   -5.4845    0.3938   -1.3987 H   0  0  0  0  0  0  0  0  0  0  0  0
   -7.0791    0.6895   -0.8189 H   0  0  0  0  0  0  0  0  0  0  0  0
   -6.7061   -0.1215    1.5194 N   0  0  0  0  0  0  0  0  0  0  0  0
   -7.6653    0.1005    1.3262 H   0  0  0  0  0  0  0  0  0  0  0  0
   -6.4835   -0.5146    2.4161 H   0  0  0  0  0  0  0  0  0  0  0  0
  1  2  1  0  0  0  0
  2  3  1  0  0  0  0
  2  4  1  0  0  0  0
  2  5  1  0  0  0  0
  5  6  1  0  0  0  0
  5  7  1  0  0  0  0
  5  8  1  0  0  0  0
  8  9  1  0  0  0  0
  9 10  1  0  0  0  0
  9 11  1  0  0  0  0
  9 12  1  0  0  0  0
  8 13  1  0  0  0  0
 13 14  1  0  0  0  0
 13 15  1  0  0  0  0
 13 16  1  0  0  0  0
  8 17  1  0  0  0  0
 17 18  1  0  0  0  0
 17 19  1  0  0  0  0
 17 20  1  0  0  0  0
  1 21  1  0  0  0  0
 22 23  2  0  0  0  0
 22 24  4  0  0  0  0
 24 25  1  0  0  0  0
 24 26  1  0  0  0  0
 22 27  1  0  0  0  0
 27 28  1  0  0  0  0
 27 29  1  0  0  0  0
 30 31  4  0  0  0  0
 30 32  4  0  0  0  0
 32 33  1  0  0  0  0
 32 34  1  0  0  0  0
 30 35  4  0  0  0  0
 35 36  1  0  0  0  0
 35 37  1  0  0  0  0
 38 39  2  0  0  0  0
 38 40  4  0  0  0  0
 40 41  1  0  0  0  0
 40 42  1  0  0  0  0
 38 43  4  0  0  0  0
 43 44  1  0  0  0  0
 43 45  1  0  0  0  0
 46 47  2  0  0  0  0
 46 48  4  0  0  0  0
 48 49  1  0  0  0  0
 48 50  1  0  0  0  0
 46 51  4  0  0  0  0
 51 52  1  0  0  0  0
 51 53  1  0  0  0  0
M  CHG  1   1   1
M  END
