  53

 O          0.6766052537        1.5475792900       -0.0762962028
 C         -0.1341786189        2.0940499527        0.9186715600
 H          0.3273443431        1.9709603492        1.9089996161
 H         -0.2009675840        3.1673152763        0.7176764025
 C         -1.5304174066        1.4596396216        1.0186344774
 H         -2.0532387448        1.9398693400        1.8480734786
 H         -1.4318796653        0.3903936811        1.2325091457
 N         -2.3867645457        1.5683140362       -0.1927325805
 C         -3.7406303528        1.1046510605        0.1570653247
 H         -3.6758613872        0.0833224689        0.5286059778
 H         -4.3592589987        1.1370727105       -0.7381694508
 H         -4.1743958618        1.7462895321        0.9211668445
 C         -1.8776729226        0.6942852999       -1.2641533069
 H         -0.8653376095        0.9891070577       -1.5297043969
 H         -2.5376916968        0.7833462104       -2.1245538791
 H         -1.8744424696       -0.3320985999       -0.9017710284
 C         -2.4684830515        2.9463587351       -0.6973813122
 H         -1.5010024401        3.2638885509       -1.0778532914
 H         -2.7875053851        3.6203865903        0.0954786823
 H         -3.1930884754        2.9707459006       -1.5106191884
 H          0.8748929451        0.6099069066        0.1823939655
 C          7.1211374055       -1.0487907101        1.7485188315
 O          5.9089896216       -1.0113750989        1.5873590793
 N          7.8746646333        0.0754687793        1.8174461146
 H          7.4036620916        0.9617008189        1.8609277275
 H          8.8446527797        0.0467347036        2.0737325803
 N          7.7976909911       -2.2168758731        1.8697649087
 H          8.8008953744       -2.2481789737        1.8751882365
 H          7.3027529046       -3.0735825430        1.6960147860
 C         -5.1638625372        1.8728150597       -3.8363427753
 O         -4.4535626167        1.8315327170       -2.8422330656
 N         -6.4936754922        2.1234184041       -3.7650723499
 H         -6.9230430938        2.1816601164       -2.8592467010
 H         -7.0922111408        2.0541173759       -4.5673919227
 N         -4.6732223213        1.6718002275       -5.0836739972
 H         -5.2332568423        1.8120597151       -5.9043338600
 H         -3.6795710535        1.5845883594       -5.1995771978
 C         -1.8656568166       -2.6559659215        1.1354910389
 O         -2.3119241327       -1.5375190099        0.9081533622
 N         -0.5532392367       -2.8878829059        1.3353159502
 H          0.1121549661       -2.1353754982        1.1537191251
 H         -0.2077805344       -3.8302588521        1.3637043244
 N         -2.6817074601       -3.7457184702        1.1924772148
 H         -2.3533316770       -4.6241046038        1.5512073858
 H         -3.6733693003       -3.5844707428        1.2045350788
 C          2.5747694710       -0.9084886108        1.0304303556
 O          1.3475781590       -0.8593725894        0.8533501707
 N          3.3941279572        0.0837199246        0.6486372341
 H          3.0221153186        0.8774823262        0.1565670808
 H          4.3862166990       -0.0124052567        0.8072021500
 N          3.1792138251       -1.9630493134        1.6081021477
 H          4.1734887761       -1.9151309885        1.7788916131
 H          2.6273904877       -2.6871717870        2.0294080740
