 xtb: 6.6.1 (unknown-commit)
          01102415393D

 53 48  0     0  0            999 V2000
    0.6766    1.5476   -0.0763 O   0  0  0  0  0  0  0  0  0  0  0  0
   -0.1342    2.0941    0.9187 C   0  0  0  0  0  0  0  0  0  0  0  0
    0.3274    1.9710    1.9090 H   0  0  0  0  0  0  0  0  0  0  0  0
   -0.2009    3.1673    0.7177 H   0  0  0  0  0  0  0  0  0  0  0  0
   -1.5304    1.4596    1.0186 C   0  0  0  0  0  0  0  0  0  0  0  0
   -2.0532    1.9399    1.8481 H   0  0  0  0  0  0  0  0  0  0  0  0
   -1.4319    0.3904    1.2325 H   0  0  0  0  0  0  0  0  0  0  0  0
   -2.3868    1.5683   -0.1927 N   0  0  0  0  0  0  0  0  0  0  0  0
   -3.7406    1.1047    0.1571 C   0  0  0  0  0  0  0  0  0  0  0  0
   -3.6759    0.0833    0.5286 H   0  0  0  0  0  0  0  0  0  0  0  0
   -4.3593    1.1371   -0.7382 H   0  0  0  0  0  0  0  0  0  0  0  0
   -4.1744    1.7463    0.9212 H   0  0  0  0  0  0  0  0  0  0  0  0
   -1.8777    0.6943   -1.2641 C   0  0  0  0  0  0  0  0  0  0  0  0
   -0.8653    0.9891   -1.5297 H   0  0  0  0  0  0  0  0  0  0  0  0
   -2.5377    0.7834   -2.1245 H   0  0  0  0  0  0  0  0  0  0  0  0
   -1.8744   -0.3321   -0.9018 H   0  0  0  0  0  0  0  0  0  0  0  0
   -2.4685    2.9464   -0.6974 C   0  0  0  0  0  0  0  0  0  0  0  0
   -1.5010    3.2639   -1.0779 H   0  0  0  0  0  0  0  0  0  0  0  0
   -2.7875    3.6204    0.0955 H   0  0  0  0  0  0  0  0  0  0  0  0
   -3.1931    2.9708   -1.5106 H   0  0  0  0  0  0  0  0  0  0  0  0
    0.8749    0.6099    0.1824 H   0  0  0  0  0  0  0  0  0  0  0  0
    7.1211   -1.0488    1.7485 C   0  0  0  0  0  0  0  0  0  0  0  0
    5.9090   -1.0114    1.5873 O   0  0  0  0  0  0  0  0  0  0  0  0
    7.8747    0.0754    1.8174 N   0  0  0  0  0  0  0  0  0  0  0  0
    7.4037    0.9617    1.8609 H   0  0  0  0  0  0  0  0  0  0  0  0
    8.8447    0.0467    2.0737 H   0  0  0  0  0  0  0  0  0  0  0  0
    7.7977   -2.2169    1.8697 N   0  0  0  0  0  0  0  0  0  0  0  0
    8.8009   -2.2482    1.8752 H   0  0  0  0  0  0  0  0  0  0  0  0
    7.3027   -3.0736    1.6960 H   0  0  0  0  0  0  0  0  0  0  0  0
   -5.1639    1.8728   -3.8363 C   0  0  0  0  0  0  0  0  0  0  0  0
   -4.4536    1.8316   -2.8422 O   0  0  0  0  0  0  0  0  0  0  0  0
   -6.4937    2.1234   -3.7651 N   0  0  0  0  0  0  0  0  0  0  0  0
   -6.9230    2.1817   -2.8592 H   0  0  0  0  0  0  0  0  0  0  0  0
   -7.0922    2.0541   -4.5674 H   0  0  0  0  0  0  0  0  0  0  0  0
   -4.6732    1.6718   -5.0837 N   0  0  0  0  0  0  0  0  0  0  0  0
   -5.2333    1.8121   -5.9043 H   0  0  0  0  0  0  0  0  0  0  0  0
   -3.6796    1.5846   -5.1996 H   0  0  0  0  0  0  0  0  0  0  0  0
   -1.8657   -2.6560    1.1355 C   0  0  0  0  0  0  0  0  0  0  0  0
   -2.3119   -1.5375    0.9082 O   0  0  0  0  0  0  0  0  0  0  0  0
   -0.5532   -2.8879    1.3353 N   0  0  0  0  0  0  0  0  0  0  0  0
    0.1121   -2.1354    1.1537 H   0  0  0  0  0  0  0  0  0  0  0  0
   -0.2078   -3.8303    1.3637 H   0  0  0  0  0  0  0  0  0  0  0  0
   -2.6817   -3.7457    1.1925 N   0  0  0  0  0  0  0  0  0  0  0  0
   -2.3534   -4.6241    1.5512 H   0  0  0  0  0  0  0  0  0  0  0  0
   -3.6734   -3.5844    1.2046 H   0  0  0  0  0  0  0  0  0  0  0  0
    2.5748   -0.9085    1.0304 C   0  0  0  0  0  0  0  0  0  0  0  0
    1.3476   -0.8594    0.8533 O   0  0  0  0  0  0  0  0  0  0  0  0
    3.3941    0.0837    0.6486 N   0  0  0  0  0  0  0  0  0  0  0  0
    3.0221    0.8775    0.1566 H   0  0  0  0  0  0  0  0  0  0  0  0
    4.3862   -0.0124    0.8072 H   0  0  0  0  0  0  0  0  0  0  0  0
    3.1792   -1.9631    1.6081 N   0  0  0  0  0  0  0  0  0  0  0  0
    4.1735   -1.9151    1.7789 H   0  0  0  0  0  0  0  0  0  0  0  0
    2.6274   -2.6872    2.0294 H   0  0  0  0  0  0  0  0  0  0  0  0
  1  2  1  0  0  0  0
  2  3  1  0  0  0  0
  2  4  1  0  0  0  0
  2  5  1  0  0  0  0
  5  6  1  0  0  0  0
  5  7  1  0  0  0  0
  5  8  1  0  0  0  0
  8  9  1  0  0  0  0
  9 10  1  0  0  0  0
  9 11  1  0  0  0  0
  9 12  1  0  0  0  0
  8 13  1  0  0  0  0
 13 14  1  0  0  0  0
 13 15  1  0  0  0  0
 13 16  1  0  0  0  0
  8 17  1  0  0  0  0
 17 18  1  0  0  0  0
 17 19  1  0  0  0  0
 17 20  1  0  0  0  0
  1 21  1  0  0  0  0
 22 23  2  0  0  0  0
 22 24  4  0  0  0  0
 24 25  1  0  0  0  0
 24 26  1  0  0  0  0
 22 27  4  0  0  0  0
 27 28  1  0  0  0  0
 27 29  1  0  0  0  0
 30 31  2  0  0  0  0
 30 32  4  0  0  0  0
 32 33  1  0  0  0  0
 32 34  1  0  0  0  0
 30 35  4  0  0  0  0
 35 36  1  0  0  0  0
 35 37  1  0  0  0  0
 38 39  2  0  0  0  0
 38 40  4  0  0  0  0
 40 41  1  0  0  0  0
 40 42  1  0  0  0  0
 38 43  1  0  0  0  0
 43 44  1  0  0  0  0
 43 45  1  0  0  0  0
 46 47  4  0  0  0  0
 46 48  4  0  0  0  0
 48 49  1  0  0  0  0
 48 50  1  0  0  0  0
 46 51  4  0  0  0  0
 51 52  1  0  0  0  0
 51 53  1  0  0  0  0
M  CHG  1   1   1
M  END
