 xtb: 6.6.1 (unknown-commit)
          01102418243D

 53 48  0     0  0            999 V2000
   -0.5920    3.1474   -0.9072 O   0  0  0  0  0  0  0  0  0  0  0  0
   -0.7402    2.2073   -1.9270 C   0  0  0  0  0  0  0  0  0  0  0  0
   -1.5882    2.5357   -2.5336 H   0  0  0  0  0  0  0  0  0  0  0  0
    0.1460    2.1908   -2.5763 H   0  0  0  0  0  0  0  0  0  0  0  0
   -0.9299    0.7643   -1.4303 C   0  0  0  0  0  0  0  0  0  0  0  0
   -0.0774    0.5008   -0.8012 H   0  0  0  0  0  0  0  0  0  0  0  0
   -0.9403    0.1067   -2.3017 H   0  0  0  0  0  0  0  0  0  0  0  0
   -2.1559    0.4924   -0.6338 N   0  0  0  0  0  0  0  0  0  0  0  0
   -2.0959    1.1761    0.6695 C   0  0  0  0  0  0  0  0  0  0  0  0
   -1.2429    0.8029    1.2315 H   0  0  0  0  0  0  0  0  0  0  0  0
   -3.0147    0.9644    1.2131 H   0  0  0  0  0  0  0  0  0  0  0  0
   -1.9846    2.2478    0.5182 H   0  0  0  0  0  0  0  0  0  0  0  0
   -2.2295   -0.9578   -0.3798 C   0  0  0  0  0  0  0  0  0  0  0  0
   -1.3201   -1.2815    0.1285 H   0  0  0  0  0  0  0  0  0  0  0  0
   -2.3317   -1.5000   -1.3175 H   0  0  0  0  0  0  0  0  0  0  0  0
   -3.0975   -1.1547    0.2472 H   0  0  0  0  0  0  0  0  0  0  0  0
   -3.3771    0.9160   -1.3347 C   0  0  0  0  0  0  0  0  0  0  0  0
   -3.4154    0.4721   -2.3276 H   0  0  0  0  0  0  0  0  0  0  0  0
   -3.4050    1.9993   -1.4194 H   0  0  0  0  0  0  0  0  0  0  0  0
   -4.2359    0.5841   -0.7513 H   0  0  0  0  0  0  0  0  0  0  0  0
    0.2408    2.9489   -0.4302 H   0  0  0  0  0  0  0  0  0  0  0  0
    5.6586   -2.2310   -2.0698 C   0  0  0  0  0  0  0  0  0  0  0  0
    4.5638   -2.0170   -1.5687 O   0  0  0  0  0  0  0  0  0  0  0  0
    6.1848   -3.4772   -2.1524 N   0  0  0  0  0  0  0  0  0  0  0  0
    5.7043   -4.2311   -1.6949 H   0  0  0  0  0  0  0  0  0  0  0  0
    7.1265   -3.6368   -2.4601 H   0  0  0  0  0  0  0  0  0  0  0  0
    6.4259   -1.2372   -2.5799 N   0  0  0  0  0  0  0  0  0  0  0  0
    7.2691   -1.4261   -3.0902 H   0  0  0  0  0  0  0  0  0  0  0  0
    6.0354   -0.3138   -2.6389 H   0  0  0  0  0  0  0  0  0  0  0  0
    1.5186    2.1919    1.7129 C   0  0  0  0  0  0  0  0  0  0  0  0
    1.5539    2.2141    0.4793 O   0  0  0  0  0  0  0  0  0  0  0  0
    1.8937    3.2668    2.4417 N   0  0  0  0  0  0  0  0  0  0  0  0
    2.1673    4.1029    1.9572 H   0  0  0  0  0  0  0  0  0  0  0  0
    1.8272    3.2899    3.4423 H   0  0  0  0  0  0  0  0  0  0  0  0
    1.0688    1.1167    2.3853 N   0  0  0  0  0  0  0  0  0  0  0  0
    1.1810    1.0475    3.3806 H   0  0  0  0  0  0  0  0  0  0  0  0
    0.9145    0.2529    1.8511 H   0  0  0  0  0  0  0  0  0  0  0  0
    1.6705   -1.3199    0.0416 C   0  0  0  0  0  0  0  0  0  0  0  0
    0.6739   -1.0757    0.7424 O   0  0  0  0  0  0  0  0  0  0  0  0
    2.0421   -2.5798   -0.2579 N   0  0  0  0  0  0  0  0  0  0  0  0
    1.5985   -3.3465    0.2142 H   0  0  0  0  0  0  0  0  0  0  0  0
    2.9187   -2.7202   -0.7392 H   0  0  0  0  0  0  0  0  0  0  0  0
    2.3945   -0.3479   -0.5370 N   0  0  0  0  0  0  0  0  0  0  0  0
    3.2527   -0.6058   -1.0007 H   0  0  0  0  0  0  0  0  0  0  0  0
    2.2223    0.6198   -0.2823 H   0  0  0  0  0  0  0  0  0  0  0  0
   -5.9168   -0.5643    1.7526 C   0  0  0  0  0  0  0  0  0  0  0  0
   -4.9253   -0.2656    1.1009 O   0  0  0  0  0  0  0  0  0  0  0  0
   -5.9256   -1.6106    2.6127 N   0  0  0  0  0  0  0  0  0  0  0  0
   -5.0674   -2.1037    2.7808 H   0  0  0  0  0  0  0  0  0  0  0  0
   -6.7085   -1.8047    3.2093 H   0  0  0  0  0  0  0  0  0  0  0  0
   -7.0770    0.1272    1.6601 N   0  0  0  0  0  0  0  0  0  0  0  0
   -7.9122   -0.1625    2.1345 H   0  0  0  0  0  0  0  0  0  0  0  0
   -7.1469    0.8676    0.9856 H   0  0  0  0  0  0  0  0  0  0  0  0
  1  2  1  0  0  0  0
  2  3  1  0  0  0  0
  2  4  1  0  0  0  0
  2  5  1  0  0  0  0
  5  6  1  0  0  0  0
  5  7  1  0  0  0  0
  5  8  1  0  0  0  0
  8  9  1  0  0  0  0
  9 10  1  0  0  0  0
  9 11  1  0  0  0  0
  9 12  1  0  0  0  0
  8 13  1  0  0  0  0
 13 14  1  0  0  0  0
 13 15  1  0  0  0  0
 13 16  1  0  0  0  0
  8 17  1  0  0  0  0
 17 18  1  0  0  0  0
 17 19  1  0  0  0  0
 17 20  1  0  0  0  0
  1 21  1  0  0  0  0
 22 23  2  0  0  0  0
 22 24  4  0  0  0  0
 24 25  1  0  0  0  0
 24 26  1  0  0  0  0
 22 27  4  0  0  0  0
 27 28  1  0  0  0  0
 27 29  1  0  0  0  0
 30 31  4  0  0  0  0
 30 32  4  0  0  0  0
 32 33  1  0  0  0  0
 32 34  1  0  0  0  0
 30 35  4  0  0  0  0
 35 36  1  0  0  0  0
 35 37  1  0  0  0  0
 38 39  4  0  0  0  0
 38 40  4  0  0  0  0
 40 41  1  0  0  0  0
 40 42  1  0  0  0  0
 38 43  4  0  0  0  0
 43 44  1  0  0  0  0
 43 45  1  0  0  0  0
 46 47  2  0  0  0  0
 46 48  4  0  0  0  0
 48 49  1  0  0  0  0
 48 50  1  0  0  0  0
 46 51  4  0  0  0  0
 51 52  1  0  0  0  0
 51 53  1  0  0  0  0
M  CHG  1   1   1
M  END
