  53

 O          0.8761983661       -0.6024215357        2.6247558739
 C         -0.4127822368       -0.4638751306        2.0874275775
 H         -1.1027198868       -0.7732182727        2.8751038105
 H         -0.6200606244        0.5864845363        1.8497244128
 C         -0.6299378043       -1.2418531184        0.7877312648
 H          0.2316131983       -1.0681425583        0.1432976480
 H         -1.5217239783       -0.8546697474        0.2931757775
 N         -0.7979399559       -2.7161547293        0.8966151845
 C          0.3463178954       -3.3240243260        1.5935857358
 H          1.2496971896       -3.1117654036        1.0201486319
 H          0.2095221321       -4.4008258744        1.6664473888
 H          0.4506957401       -2.9014429871        2.5899287121
 C         -0.8547524482       -3.2427763663       -0.4790142143
 H          0.0847295984       -3.0212031399       -0.9841285949
 H         -1.6800809460       -2.7741566044       -1.0119913598
 H         -1.0015545818       -4.3206954935       -0.4603141987
 C         -2.0590957560       -3.0376395429        1.5795444617
 H         -2.0281801419       -2.7070888143        2.6147870462
 H         -2.2270109087       -4.1129340992        1.5643274984
 H         -2.8802256082       -2.5391748896        1.0651591322
 H          1.5177545589       -0.2449282466        1.9933351635
 C          2.7290403683       -0.9187742296       -0.5678371495
 O          2.1124159710       -1.9764055955       -0.5950805910
 N          2.9495123893       -0.1611881765       -1.6569339809
 H          2.5233291003       -0.4594046644       -2.5173689855
 H          3.1760446282        0.8223427449       -1.5630779318
 N          3.1960772491       -0.3956002288        0.6185736277
 H          3.8557065170        0.3631396627        0.5509949890
 H          3.4058692851       -1.0725487412        1.3368911496
 C          2.5528987910        3.0335666098        0.1114106042
 O          2.7468701089        2.5822292130       -1.0192782525
 N          3.5218003686        3.7290707185        0.7595772943
 H          4.3250605587        4.0130973920        0.2253697399
 H          3.3257323505        4.2364152861        1.6038710881
 N          1.4212428159        2.7875268829        0.7933459432
 H          1.2406881622        3.2382378401        1.6718699202
 H          0.6456756297        2.3226714971        0.3132341429
 C         -0.4823757369        1.1526123759       -1.7471308658
 O         -0.6345985170        1.4437418074       -0.5494835389
 N          0.5175508699        1.6710811207       -2.4755377238
 H          1.2791326674        2.1636174135       -2.0062158010
 H          0.6415365598        1.4153574175       -3.4382435558
 N         -1.3132422381        0.2834560715       -2.3568674573
 H         -1.2683607392        0.1245796744       -3.3465931218
 H         -2.1015363383       -0.0955346007       -1.8397629564
 C         -3.9754258721        0.2217619022       -0.1351376899
 O         -3.3480995563       -0.7418437445       -0.5863947471
 N         -5.3069582758        0.1474135551        0.0914995458
 H         -5.8010581825       -0.6675612725       -0.2262130769
 H         -5.8448432879        0.9491148171        0.3658210101
 N         -3.3582192862        1.3650792978        0.2087764894
 H         -3.8759442932        2.1685899553        0.5137574494
 H         -2.3634960892        1.4696668607        0.0017875802
