 xtb: 6.6.1 (unknown-commit)
          01102418273D

 53 48  0     0  0            999 V2000
   -0.9533   -0.1639   -2.6058 O   0  0  0  0  0  0  0  0  0  0  0  0
   -0.6680   -1.5255   -2.4874 C   0  0  0  0  0  0  0  0  0  0  0  0
   -1.4777   -2.0556   -2.9972 H   0  0  0  0  0  0  0  0  0  0  0  0
    0.2690   -1.7776   -3.0052 H   0  0  0  0  0  0  0  0  0  0  0  0
   -0.5046   -2.0315   -1.0450 C   0  0  0  0  0  0  0  0  0  0  0  0
    0.3507   -1.5417   -0.5690 H   0  0  0  0  0  0  0  0  0  0  0  0
   -0.3071   -3.1040   -1.0991 H   0  0  0  0  0  0  0  0  0  0  0  0
   -1.6627   -1.8175   -0.1372 N   0  0  0  0  0  0  0  0  0  0  0  0
   -1.7718   -0.3951    0.2330 C   0  0  0  0  0  0  0  0  0  0  0  0
   -2.6124   -0.2795    0.9140 H   0  0  0  0  0  0  0  0  0  0  0  0
   -1.9291    0.2063   -0.6591 H   0  0  0  0  0  0  0  0  0  0  0  0
   -0.8491   -0.0923    0.7252 H   0  0  0  0  0  0  0  0  0  0  0  0
   -1.4242   -2.5816    1.1000 C   0  0  0  0  0  0  0  0  0  0  0  0
   -1.3664   -3.6461    0.8831 H   0  0  0  0  0  0  0  0  0  0  0  0
   -2.2507   -2.3974    1.7845 H   0  0  0  0  0  0  0  0  0  0  0  0
   -0.4888   -2.2464    1.5455 H   0  0  0  0  0  0  0  0  0  0  0  0
   -2.9314   -2.2546   -0.7369 C   0  0  0  0  0  0  0  0  0  0  0  0
   -3.7125   -2.1626    0.0177 H   0  0  0  0  0  0  0  0  0  0  0  0
   -2.8577   -3.2906   -1.0622 H   0  0  0  0  0  0  0  0  0  0  0  0
   -3.1808   -1.6218   -1.5850 H   0  0  0  0  0  0  0  0  0  0  0  0
   -0.1718    0.3527   -2.2891 H   0  0  0  0  0  0  0  0  0  0  0  0
    2.3674   -0.5397    1.1816 C   0  0  0  0  0  0  0  0  0  0  0  0
    1.1888   -0.8694    1.2781 O   0  0  0  0  0  0  0  0  0  0  0  0
    2.9277   -0.1969   -0.0018 N   0  0  0  0  0  0  0  0  0  0  0  0
    2.2882    0.0887   -0.7359 H   0  0  0  0  0  0  0  0  0  0  0  0
    3.8007    0.3096   -0.0052 H   0  0  0  0  0  0  0  0  0  0  0  0
    3.1957   -0.5250    2.2576 N   0  0  0  0  0  0  0  0  0  0  0  0
    4.1848   -0.3966    2.1409 H   0  0  0  0  0  0  0  0  0  0  0  0
    2.8741   -0.9477    3.1105 H   0  0  0  0  0  0  0  0  0  0  0  0
    3.3010    3.0316    0.3985 C   0  0  0  0  0  0  0  0  0  0  0  0
    4.1009    2.4361   -0.3211 O   0  0  0  0  0  0  0  0  0  0  0  0
    1.9697    2.9666    0.1977 N   0  0  0  0  0  0  0  0  0  0  0  0
    1.6142    2.3349   -0.5131 H   0  0  0  0  0  0  0  0  0  0  0  0
    1.3210    3.3821    0.8400 H   0  0  0  0  0  0  0  0  0  0  0  0
    3.7201    3.7692    1.4569 N   0  0  0  0  0  0  0  0  0  0  0  0
    3.0957    4.3804    1.9513 H   0  0  0  0  0  0  0  0  0  0  0  0
    4.7069    3.9424    1.5389 H   0  0  0  0  0  0  0  0  0  0  0  0
    1.9424    1.4731   -2.9838 C   0  0  0  0  0  0  0  0  0  0  0  0
    1.2968    1.1525   -1.9678 O   0  0  0  0  0  0  0  0  0  0  0  0
    1.4068    1.3054   -4.2120 N   0  0  0  0  0  0  0  0  0  0  0  0
    0.4485    1.0061   -4.2855 H   0  0  0  0  0  0  0  0  0  0  0  0
    1.8740    1.6252   -5.0406 H   0  0  0  0  0  0  0  0  0  0  0  0
    3.1823    1.9546   -2.8955 N   0  0  0  0  0  0  0  0  0  0  0  0
    3.7026    2.2200   -3.7114 H   0  0  0  0  0  0  0  0  0  0  0  0
    3.6028    2.0994   -1.9694 H   0  0  0  0  0  0  0  0  0  0  0  0
   -5.1609   -1.4009    2.7944 C   0  0  0  0  0  0  0  0  0  0  0  0
   -4.2484   -1.5030    1.9861 O   0  0  0  0  0  0  0  0  0  0  0  0
   -6.4627   -1.4425    2.4240 N   0  0  0  0  0  0  0  0  0  0  0  0
   -6.6867   -1.6388    1.4652 H   0  0  0  0  0  0  0  0  0  0  0  0
   -7.2093   -1.4434    3.0942 H   0  0  0  0  0  0  0  0  0  0  0  0
   -4.9347   -1.2390    4.1200 N   0  0  0  0  0  0  0  0  0  0  0  0
   -5.6783   -1.0712    4.7723 H   0  0  0  0  0  0  0  0  0  0  0  0
   -3.9894   -1.1192    4.4365 H   0  0  0  0  0  0  0  0  0  0  0  0
  1  2  1  0  0  0  0
  2  3  1  0  0  0  0
  2  4  1  0  0  0  0
  2  5  1  0  0  0  0
  5  6  1  0  0  0  0
  5  7  1  0  0  0  0
  5  8  1  0  0  0  0
  8  9  1  0  0  0  0
  9 10  1  0  0  0  0
  9 11  1  0  0  0  0
  9 12  1  0  0  0  0
  8 13  1  0  0  0  0
 13 14  1  0  0  0  0
 13 15  1  0  0  0  0
 13 16  1  0  0  0  0
  8 17  1  0  0  0  0
 17 18  1  0  0  0  0
 17 19  1  0  0  0  0
 17 20  1  0  0  0  0
  1 21  1  0  0  0  0
 22 23  2  0  0  0  0
 22 24  4  0  0  0  0
 24 25  1  0  0  0  0
 24 26  1  0  0  0  0
 22 27  1  0  0  0  0
 27 28  1  0  0  0  0
 27 29  1  0  0  0  0
 30 31  2  0  0  0  0
 30 32  4  0  0  0  0
 32 33  1  0  0  0  0
 32 34  1  0  0  0  0
 30 35  4  0  0  0  0
 35 36  1  0  0  0  0
 35 37  1  0  0  0  0
 38 39  4  0  0  0  0
 38 40  4  0  0  0  0
 40 41  1  0  0  0  0
 40 42  1  0  0  0  0
 38 43  4  0  0  0  0
 43 44  1  0  0  0  0
 43 45  1  0  0  0  0
 46 47  2  0  0  0  0
 46 48  4  0  0  0  0
 48 49  1  0  0  0  0
 48 50  1  0  0  0  0
 46 51  4  0  0  0  0
 51 52  1  0  0  0  0
 51 53  1  0  0  0  0
M  CHG  1   1   1
M  END
