  53

 O          0.2869653908       -1.8378954172       -0.0508562372
 C          0.3686310503       -0.6188689286       -0.7599162555
 H          1.2057179568       -0.0181829469       -0.3996042760
 H          0.5369030110       -0.8280476490       -1.8257885775
 C         -0.9519424152        0.1400456590       -0.6408345685
 H         -1.7613352382       -0.5945873663       -0.6565646230
 H         -1.0627417125        0.8330396973       -1.4758922194
 N         -1.1284141162        0.9380136571        0.6032315704
 C         -0.9212847906        0.1019535621        1.7932175320
 H         -1.6088286127       -0.7420353843        1.7424064477
 H         -1.1240127024        0.6834591430        2.6902365249
 H          0.1013355053       -0.2635387101        1.8288407129
 C         -2.5180450544        1.4287782564        0.6009297496
 H         -3.1978368920        0.5785402833        0.6045756329
 H         -2.6775040496        2.0300238495       -0.2923128992
 H         -2.6982497760        2.0373023419        1.4844303632
 C         -0.2196990015        2.0946755338        0.6182757374
 H         -0.3853389218        2.6798512267       -0.2846849796
 H          0.8210233626        1.7782162756        0.6663775108
 H         -0.4308794378        2.7113272959        1.4895513838
 H          1.1876463941       -2.1299949081        0.1925918411
 C          3.7340693320        0.9373504721       -0.0003495025
 O          2.7995922682        1.1096820897        0.7881227397
 N          4.3877227949        1.9898906849       -0.5463138608
 H          4.1690245959        2.9117407890       -0.2133903547
 H          5.2047112392        1.8704220812       -1.1164819355
 N          4.1162831783       -0.2881021673       -0.3910452836
 H          4.8879498844       -0.4273376134       -1.0166371446
 H          3.6476631063       -1.1050292518        0.0019428938
 C         -2.0410737060        3.5437580328       -3.0496899802
 O         -1.6705002631        2.8725670049       -2.0973768559
 N         -2.5287617074        4.7998724542       -2.9024492426
 H         -2.4848901704        5.2274532198       -1.9949019353
 H         -2.7289525704        5.3879615901       -3.6905162029
 N         -1.9915808826        3.0828964352       -4.3237792848
 H         -2.4111162051        3.5854241616       -5.0845221902
 H         -1.7513493851        2.1193507159       -4.4734079918
 C         -3.2334296631       -2.8317673982        0.3676411973
 O         -3.2439217064       -1.6254488019        0.5830652990
 N         -4.3396675887       -3.5990773343        0.5455357999
 H         -5.2079453054       -3.1330251337        0.7402909632
 H         -4.3769149138       -4.5532357797        0.2365054422
 N         -2.1238354709       -3.4752209163       -0.0567162132
 H         -2.0961268169       -4.4759890309       -0.1231678472
 H         -1.2467374182       -2.9677615756       -0.0800249461
 C          2.7524924905       -2.1293502390        2.1947727103
 O          2.7549436967       -2.3359330207        0.9768674023
 N          2.5152697083       -0.9027435754        2.7019864806
 H          2.5787891727       -0.1094066013        2.0554286704
 H          2.6777300651       -0.7193213661        3.6763922704
 N          2.9398303569       -3.1376157757        3.0722595009
 H          2.9073392582       -3.0033240685        4.0659666685
 H          3.0544419829       -4.0688147959        2.7136145774
