 xtb: 6.6.1 (unknown-commit)
          01102415423D

 53 48  0     0  0            999 V2000
    0.2870   -1.8379   -0.0509 O   0  0  0  0  0  0  0  0  0  0  0  0
    0.3686   -0.6189   -0.7599 C   0  0  0  0  0  0  0  0  0  0  0  0
    1.2057   -0.0182   -0.3996 H   0  0  0  0  0  0  0  0  0  0  0  0
    0.5369   -0.8281   -1.8258 H   0  0  0  0  0  0  0  0  0  0  0  0
   -0.9519    0.1400   -0.6408 C   0  0  0  0  0  0  0  0  0  0  0  0
   -1.7613   -0.5946   -0.6566 H   0  0  0  0  0  0  0  0  0  0  0  0
   -1.0627    0.8330   -1.4759 H   0  0  0  0  0  0  0  0  0  0  0  0
   -1.1284    0.9380    0.6032 N   0  0  0  0  0  0  0  0  0  0  0  0
   -0.9213    0.1020    1.7932 C   0  0  0  0  0  0  0  0  0  0  0  0
   -1.6088   -0.7420    1.7424 H   0  0  0  0  0  0  0  0  0  0  0  0
   -1.1240    0.6835    2.6902 H   0  0  0  0  0  0  0  0  0  0  0  0
    0.1013   -0.2635    1.8288 H   0  0  0  0  0  0  0  0  0  0  0  0
   -2.5180    1.4288    0.6009 C   0  0  0  0  0  0  0  0  0  0  0  0
   -3.1978    0.5786    0.6046 H   0  0  0  0  0  0  0  0  0  0  0  0
   -2.6775    2.0300   -0.2923 H   0  0  0  0  0  0  0  0  0  0  0  0
   -2.6982    2.0373    1.4844 H   0  0  0  0  0  0  0  0  0  0  0  0
   -0.2197    2.0947    0.6183 C   0  0  0  0  0  0  0  0  0  0  0  0
   -0.3853    2.6799   -0.2847 H   0  0  0  0  0  0  0  0  0  0  0  0
    0.8210    1.7782    0.6664 H   0  0  0  0  0  0  0  0  0  0  0  0
   -0.4309    2.7113    1.4895 H   0  0  0  0  0  0  0  0  0  0  0  0
    1.1876   -2.1300    0.1926 H   0  0  0  0  0  0  0  0  0  0  0  0
    3.7341    0.9373   -0.0004 C   0  0  0  0  0  0  0  0  0  0  0  0
    2.7996    1.1097    0.7881 O   0  0  0  0  0  0  0  0  0  0  0  0
    4.3877    1.9899   -0.5463 N   0  0  0  0  0  0  0  0  0  0  0  0
    4.1690    2.9117   -0.2134 H   0  0  0  0  0  0  0  0  0  0  0  0
    5.2047    1.8704   -1.1165 H   0  0  0  0  0  0  0  0  0  0  0  0
    4.1163   -0.2881   -0.3911 N   0  0  0  0  0  0  0  0  0  0  0  0
    4.8879   -0.4274   -1.0167 H   0  0  0  0  0  0  0  0  0  0  0  0
    3.6477   -1.1050    0.0019 H   0  0  0  0  0  0  0  0  0  0  0  0
   -2.0411    3.5438   -3.0497 C   0  0  0  0  0  0  0  0  0  0  0  0
   -1.6705    2.8726   -2.0974 O   0  0  0  0  0  0  0  0  0  0  0  0
   -2.5287    4.7999   -2.9024 N   0  0  0  0  0  0  0  0  0  0  0  0
   -2.4849    5.2275   -1.9949 H   0  0  0  0  0  0  0  0  0  0  0  0
   -2.7289    5.3880   -3.6905 H   0  0  0  0  0  0  0  0  0  0  0  0
   -1.9916    3.0829   -4.3238 N   0  0  0  0  0  0  0  0  0  0  0  0
   -2.4111    3.5854   -5.0845 H   0  0  0  0  0  0  0  0  0  0  0  0
   -1.7514    2.1194   -4.4734 H   0  0  0  0  0  0  0  0  0  0  0  0
   -3.2334   -2.8317    0.3677 C   0  0  0  0  0  0  0  0  0  0  0  0
   -3.2439   -1.6254    0.5831 O   0  0  0  0  0  0  0  0  0  0  0  0
   -4.3397   -3.5991    0.5456 N   0  0  0  0  0  0  0  0  0  0  0  0
   -5.2080   -3.1330    0.7403 H   0  0  0  0  0  0  0  0  0  0  0  0
   -4.3769   -4.5532    0.2365 H   0  0  0  0  0  0  0  0  0  0  0  0
   -2.1239   -3.4752   -0.0567 N   0  0  0  0  0  0  0  0  0  0  0  0
   -2.0962   -4.4760   -0.1232 H   0  0  0  0  0  0  0  0  0  0  0  0
   -1.2468   -2.9678   -0.0800 H   0  0  0  0  0  0  0  0  0  0  0  0
    2.7525   -2.1294    2.1948 C   0  0  0  0  0  0  0  0  0  0  0  0
    2.7549   -2.3359    0.9769 O   0  0  0  0  0  0  0  0  0  0  0  0
    2.5153   -0.9028    2.7020 N   0  0  0  0  0  0  0  0  0  0  0  0
    2.5788   -0.1094    2.0554 H   0  0  0  0  0  0  0  0  0  0  0  0
    2.6777   -0.7193    3.6764 H   0  0  0  0  0  0  0  0  0  0  0  0
    2.9398   -3.1376    3.0723 N   0  0  0  0  0  0  0  0  0  0  0  0
    2.9073   -3.0033    4.0660 H   0  0  0  0  0  0  0  0  0  0  0  0
    3.0544   -4.0688    2.7136 H   0  0  0  0  0  0  0  0  0  0  0  0
  1  2  1  0  0  0  0
  2  3  1  0  0  0  0
  2  4  1  0  0  0  0
  2  5  1  0  0  0  0
  5  6  1  0  0  0  0
  5  7  1  0  0  0  0
  5  8  1  0  0  0  0
  8  9  1  0  0  0  0
  9 10  1  0  0  0  0
  9 11  1  0  0  0  0
  9 12  1  0  0  0  0
  8 13  1  0  0  0  0
 13 14  1  0  0  0  0
 13 15  1  0  0  0  0
 13 16  1  0  0  0  0
  8 17  1  0  0  0  0
 17 18  1  0  0  0  0
 17 19  1  0  0  0  0
 17 20  1  0  0  0  0
  1 21  1  0  0  0  0
 22 23  4  0  0  0  0
 22 24  4  0  0  0  0
 24 25  1  0  0  0  0
 24 26  1  0  0  0  0
 22 27  4  0  0  0  0
 27 28  1  0  0  0  0
 27 29  1  0  0  0  0
 30 31  2  0  0  0  0
 30 32  4  0  0  0  0
 32 33  1  0  0  0  0
 32 34  1  0  0  0  0
 30 35  4  0  0  0  0
 35 36  1  0  0  0  0
 35 37  1  0  0  0  0
 38 39  2  0  0  0  0
 38 40  1  0  0  0  0
 40 41  1  0  0  0  0
 40 42  1  0  0  0  0
 38 43  4  0  0  0  0
 43 44  1  0  0  0  0
 43 45  1  0  0  0  0
 46 47  4  0  0  0  0
 46 48  4  0  0  0  0
 48 49  1  0  0  0  0
 48 50  1  0  0  0  0
 46 51  4  0  0  0  0
 51 52  1  0  0  0  0
 51 53  1  0  0  0  0
M  CHG  1   1   1
M  END
