  53

 O         -1.9372799050       -0.6279618415        1.9622332477
 C         -0.8809454445       -1.5253857367        1.7772758247
 H         -0.5335935180       -1.8067630730        2.7749983802
 H         -1.2153360288       -2.4378980265        1.2680433868
 C          0.2682432097       -0.9748985377        0.9207488169
 H         -0.1078995761       -0.7644810458       -0.0826924144
 H          1.0208496853       -1.7599282626        0.8422544705
 N          0.9216866843        0.2640293442        1.4196718138
 C          0.0377182338        1.4264454002        1.2282962446
 H         -0.1780253926        1.5364529458        0.1681992921
 H          0.5508508983        2.3131424183        1.5962498397
 H         -0.8918711698        1.2723473626        1.7717028252
 C          2.1461671465        0.4938810425        0.6345866858
 H          1.8844228568        0.5640466257       -0.4194004312
 H          2.8461137235       -0.3261259199        0.7790744519
 H          2.6031996980        1.4246000514        0.9671133060
 C          1.2763078175        0.1681848416        2.8430580575
 H          1.8813023798       -0.7187744140        3.0206186824
 H          0.3749837303        0.1213879323        3.4488659359
 H          1.8414028912        1.0586623601        3.1168361173
 H         -2.3926303862       -0.5186772662        1.1025063369
 C          0.6748989490       -3.2116727751       -1.9964176313
 O         -0.2339789635       -3.1252818480       -1.1795498200
 N          1.0344715391       -4.4081524740       -2.5338608141
 H          0.6285985152       -5.2388096956       -2.1401425665
 H          1.8719611158       -4.5117792049       -3.0777719205
 N          1.3937281062       -2.1403151067       -2.4028008021
 H          2.0161270124       -2.2238342001       -3.1870476153
 H          1.0294753594       -1.2131606115       -2.1998273044
 C          3.0253735916        4.0358533505        2.9664720981
 O          2.5141368147        3.0256334482        2.5042271507
 N          2.3753989912        5.2244481374        3.0001209162
 H          1.4084409759        5.2504906994        2.7304489890
 H          2.7527307145        6.0226943397        3.4769474166
 N          4.2797941454        4.0414077728        3.4781316186
 H          4.7330936017        4.8879707261        3.7690249659
 H          4.8392532891        3.2122657069        3.3902697499
 C         -0.4773724030        0.9917442748       -2.7042378644
 O          0.3505466863        0.4729740719       -1.9539092033
 N         -0.0932155780        1.5889322611       -3.8626252862
 H          0.8892099018        1.7201285660       -4.0266552414
 H         -0.7350401023        2.1306169208       -4.4124577381
 N         -1.7900732811        1.0090466043       -2.4251552187
 H         -2.4503974982        1.3590943827       -3.0957221134
 H         -2.1544270827        0.4332095244       -1.6660382527
 C         -3.6313910572       -1.6662107509       -0.8590071924
 O         -3.0091902647       -0.6483176872       -0.5372810891
 N         -4.9862385928       -1.6750590714       -0.8642746475
 H         -5.4675298987       -0.8716320735       -0.5009667704
 H         -5.5135440409       -2.5151410498       -1.0168284196
 N         -3.0137607669       -2.7876003013       -1.2530777398
 H         -3.5315633431       -3.6179070023       -1.4757033584
 H         -1.9974421007       -2.8449958158       -1.2294800972
