 xtb: 6.6.1 (unknown-commit)
          01102418323D

 53 48  0     0  0            999 V2000
   -1.9373   -0.6279    1.9622 O   0  0  0  0  0  0  0  0  0  0  0  0
   -0.8809   -1.5254    1.7773 C   0  0  0  0  0  0  0  0  0  0  0  0
   -0.5336   -1.8068    2.7750 H   0  0  0  0  0  0  0  0  0  0  0  0
   -1.2153   -2.4379    1.2681 H   0  0  0  0  0  0  0  0  0  0  0  0
    0.2682   -0.9749    0.9207 C   0  0  0  0  0  0  0  0  0  0  0  0
   -0.1079   -0.7645   -0.0827 H   0  0  0  0  0  0  0  0  0  0  0  0
    1.0208   -1.7599    0.8423 H   0  0  0  0  0  0  0  0  0  0  0  0
    0.9217    0.2640    1.4197 N   0  0  0  0  0  0  0  0  0  0  0  0
    0.0377    1.4264    1.2283 C   0  0  0  0  0  0  0  0  0  0  0  0
   -0.1780    1.5365    0.1682 H   0  0  0  0  0  0  0  0  0  0  0  0
    0.5509    2.3131    1.5962 H   0  0  0  0  0  0  0  0  0  0  0  0
   -0.8919    1.2724    1.7717 H   0  0  0  0  0  0  0  0  0  0  0  0
    2.1462    0.4939    0.6346 C   0  0  0  0  0  0  0  0  0  0  0  0
    1.8844    0.5640   -0.4194 H   0  0  0  0  0  0  0  0  0  0  0  0
    2.8461   -0.3261    0.7791 H   0  0  0  0  0  0  0  0  0  0  0  0
    2.6032    1.4246    0.9671 H   0  0  0  0  0  0  0  0  0  0  0  0
    1.2763    0.1682    2.8431 C   0  0  0  0  0  0  0  0  0  0  0  0
    1.8813   -0.7188    3.0206 H   0  0  0  0  0  0  0  0  0  0  0  0
    0.3750    0.1214    3.4489 H   0  0  0  0  0  0  0  0  0  0  0  0
    1.8414    1.0587    3.1168 H   0  0  0  0  0  0  0  0  0  0  0  0
   -2.3926   -0.5187    1.1025 H   0  0  0  0  0  0  0  0  0  0  0  0
    0.6749   -3.2117   -1.9964 C   0  0  0  0  0  0  0  0  0  0  0  0
   -0.2340   -3.1253   -1.1795 O   0  0  0  0  0  0  0  0  0  0  0  0
    1.0344   -4.4082   -2.5339 N   0  0  0  0  0  0  0  0  0  0  0  0
    0.6286   -5.2388   -2.1401 H   0  0  0  0  0  0  0  0  0  0  0  0
    1.8719   -4.5118   -3.0778 H   0  0  0  0  0  0  0  0  0  0  0  0
    1.3937   -2.1403   -2.4028 N   0  0  0  0  0  0  0  0  0  0  0  0
    2.0161   -2.2239   -3.1871 H   0  0  0  0  0  0  0  0  0  0  0  0
    1.0295   -1.2132   -2.1998 H   0  0  0  0  0  0  0  0  0  0  0  0
    3.0254    4.0358    2.9665 C   0  0  0  0  0  0  0  0  0  0  0  0
    2.5142    3.0256    2.5042 O   0  0  0  0  0  0  0  0  0  0  0  0
    2.3754    5.2244    3.0001 N   0  0  0  0  0  0  0  0  0  0  0  0
    1.4085    5.2505    2.7304 H   0  0  0  0  0  0  0  0  0  0  0  0
    2.7528    6.0227    3.4769 H   0  0  0  0  0  0  0  0  0  0  0  0
    4.2798    4.0414    3.4781 N   0  0  0  0  0  0  0  0  0  0  0  0
    4.7331    4.8880    3.7690 H   0  0  0  0  0  0  0  0  0  0  0  0
    4.8393    3.2122    3.3902 H   0  0  0  0  0  0  0  0  0  0  0  0
   -0.4774    0.9917   -2.7042 C   0  0  0  0  0  0  0  0  0  0  0  0
    0.3505    0.4730   -1.9539 O   0  0  0  0  0  0  0  0  0  0  0  0
   -0.0932    1.5889   -3.8626 N   0  0  0  0  0  0  0  0  0  0  0  0
    0.8892    1.7201   -4.0267 H   0  0  0  0  0  0  0  0  0  0  0  0
   -0.7350    2.1306   -4.4125 H   0  0  0  0  0  0  0  0  0  0  0  0
   -1.7901    1.0091   -2.4252 N   0  0  0  0  0  0  0  0  0  0  0  0
   -2.4504    1.3591   -3.0957 H   0  0  0  0  0  0  0  0  0  0  0  0
   -2.1544    0.4332   -1.6660 H   0  0  0  0  0  0  0  0  0  0  0  0
   -3.6314   -1.6662   -0.8590 C   0  0  0  0  0  0  0  0  0  0  0  0
   -3.0092   -0.6483   -0.5373 O   0  0  0  0  0  0  0  0  0  0  0  0
   -4.9863   -1.6750   -0.8643 N   0  0  0  0  0  0  0  0  0  0  0  0
   -5.4675   -0.8716   -0.5009 H   0  0  0  0  0  0  0  0  0  0  0  0
   -5.5136   -2.5151   -1.0168 H   0  0  0  0  0  0  0  0  0  0  0  0
   -3.0138   -2.7876   -1.2531 N   0  0  0  0  0  0  0  0  0  0  0  0
   -3.5316   -3.6179   -1.4757 H   0  0  0  0  0  0  0  0  0  0  0  0
   -1.9975   -2.8450   -1.2295 H   0  0  0  0  0  0  0  0  0  0  0  0
  1  2  1  0  0  0  0
  2  3  1  0  0  0  0
  2  4  1  0  0  0  0
  2  5  1  0  0  0  0
  5  6  1  0  0  0  0
  5  7  1  0  0  0  0
  5  8  1  0  0  0  0
  8  9  1  0  0  0  0
  9 10  1  0  0  0  0
  9 11  1  0  0  0  0
  9 12  1  0  0  0  0
  8 13  1  0  0  0  0
 13 14  1  0  0  0  0
 13 15  1  0  0  0  0
 13 16  1  0  0  0  0
  8 17  1  0  0  0  0
 17 18  1  0  0  0  0
 17 19  1  0  0  0  0
 17 20  1  0  0  0  0
  1 21  1  0  0  0  0
 22 23  2  0  0  0  0
 22 24  1  0  0  0  0
 24 25  1  0  0  0  0
 24 26  1  0  0  0  0
 22 27  4  0  0  0  0
 27 28  1  0  0  0  0
 27 29  1  0  0  0  0
 30 31  2  0  0  0  0
 30 32  4  0  0  0  0
 32 33  1  0  0  0  0
 32 34  1  0  0  0  0
 30 35  4  0  0  0  0
 35 36  1  0  0  0  0
 35 37  1  0  0  0  0
 38 39  4  0  0  0  0
 38 40  1  0  0  0  0
 40 41  1  0  0  0  0
 40 42  1  0  0  0  0
 38 43  4  0  0  0  0
 43 44  1  0  0  0  0
 43 45  1  0  0  0  0
 46 47  4  0  0  0  0
 46 48  4  0  0  0  0
 48 49  1  0  0  0  0
 48 50  1  0  0  0  0
 46 51  4  0  0  0  0
 51 52  1  0  0  0  0
 51 53  1  0  0  0  0
M  CHG  1   1   1
M  END
