 xtb: 6.6.1 (unknown-commit)
          01102418233D

 53 48  0     0  0            999 V2000
   -2.2977   -1.1881    1.1218 O   0  0  0  0  0  0  0  0  0  0  0  0
   -1.4669   -1.6487    0.0859 C   0  0  0  0  0  0  0  0  0  0  0  0
   -1.6151   -2.7293    0.0178 H   0  0  0  0  0  0  0  0  0  0  0  0
   -1.7739   -1.2132   -0.8714 H   0  0  0  0  0  0  0  0  0  0  0  0
    0.0145   -1.2988    0.2694 C   0  0  0  0  0  0  0  0  0  0  0  0
    0.0998   -0.2467    0.5400 H   0  0  0  0  0  0  0  0  0  0  0  0
    0.5357   -1.4721   -0.6773 H   0  0  0  0  0  0  0  0  0  0  0  0
    0.7578   -2.0643    1.3068 N   0  0  0  0  0  0  0  0  0  0  0  0
    0.1963   -1.7940    2.6384 C   0  0  0  0  0  0  0  0  0  0  0  0
    0.3332   -0.7393    2.8732 H   0  0  0  0  0  0  0  0  0  0  0  0
    0.7045   -2.3959    3.3893 H   0  0  0  0  0  0  0  0  0  0  0  0
   -0.8684   -2.0185    2.6471 H   0  0  0  0  0  0  0  0  0  0  0  0
    2.1567   -1.6017    1.2664 C   0  0  0  0  0  0  0  0  0  0  0  0
    2.1873   -0.5313    1.4675 H   0  0  0  0  0  0  0  0  0  0  0  0
    2.5638   -1.7963    0.2752 H   0  0  0  0  0  0  0  0  0  0  0  0
    2.7449   -2.1265    2.0158 H   0  0  0  0  0  0  0  0  0  0  0  0
    0.7405   -3.5037    1.0088 C   0  0  0  0  0  0  0  0  0  0  0  0
    1.0825   -3.6500   -0.0153 H   0  0  0  0  0  0  0  0  0  0  0  0
   -0.2602   -3.9108    1.1273 H   0  0  0  0  0  0  0  0  0  0  0  0
    1.4094   -4.0289    1.6880 H   0  0  0  0  0  0  0  0  0  0  0  0
   -2.5158   -0.2457    0.9519 H   0  0  0  0  0  0  0  0  0  0  0  0
   -0.3642    1.6201   -1.1783 C   0  0  0  0  0  0  0  0  0  0  0  0
    0.7646    1.4717   -1.6597 O   0  0  0  0  0  0  0  0  0  0  0  0
   -1.4820    1.3723   -1.9014 N   0  0  0  0  0  0  0  0  0  0  0  0
   -1.4090    1.2638   -2.8968 H   0  0  0  0  0  0  0  0  0  0  0  0
   -2.3836    1.5379   -1.4862 H   0  0  0  0  0  0  0  0  0  0  0  0
   -0.5675    2.0055    0.0927 N   0  0  0  0  0  0  0  0  0  0  0  0
   -1.5070    2.0088    0.4568 H   0  0  0  0  0  0  0  0  0  0  0  0
    0.2120    1.9765    0.7464 H   0  0  0  0  0  0  0  0  0  0  0  0
    2.6521    2.1172    1.3033 C   0  0  0  0  0  0  0  0  0  0  0  0
    1.6921    1.4614    1.7204 O   0  0  0  0  0  0  0  0  0  0  0  0
    3.6103    2.5682    2.1519 N   0  0  0  0  0  0  0  0  0  0  0  0
    3.4465    2.4828    3.1393 H   0  0  0  0  0  0  0  0  0  0  0  0
    4.3255    3.2033    1.8476 H   0  0  0  0  0  0  0  0  0  0  0  0
    2.8256    2.3672   -0.0015 N   0  0  0  0  0  0  0  0  0  0  0  0
    3.5959    2.9172   -0.3336 H   0  0  0  0  0  0  0  0  0  0  0  0
    2.1210    2.0415   -0.6705 H   0  0  0  0  0  0  0  0  0  0  0  0
    2.3197   -1.7893   -2.8658 C   0  0  0  0  0  0  0  0  0  0  0  0
    1.9865   -2.2571   -1.7802 O   0  0  0  0  0  0  0  0  0  0  0  0
    1.9413   -0.5649   -3.2838 N   0  0  0  0  0  0  0  0  0  0  0  0
    1.5036    0.0911   -2.6417 H   0  0  0  0  0  0  0  0  0  0  0  0
    2.3372   -0.1761   -4.1209 H   0  0  0  0  0  0  0  0  0  0  0  0
    3.0979   -2.4970   -3.7259 N   0  0  0  0  0  0  0  0  0  0  0  0
    3.2656   -2.1859   -4.6653 H   0  0  0  0  0  0  0  0  0  0  0  0
    3.2887   -3.4590   -3.5091 H   0  0  0  0  0  0  0  0  0  0  0  0
   -4.5259    1.2327    0.8658 C   0  0  0  0  0  0  0  0  0  0  0  0
   -3.3517    1.2577    0.4900 O   0  0  0  0  0  0  0  0  0  0  0  0
   -5.3298    2.3094    0.7418 N   0  0  0  0  0  0  0  0  0  0  0  0
   -4.9429    3.1679    0.3924 H   0  0  0  0  0  0  0  0  0  0  0  0
   -6.2720    2.3172    1.0869 H   0  0  0  0  0  0  0  0  0  0  0  0
   -5.0737    0.1256    1.4021 N   0  0  0  0  0  0  0  0  0  0  0  0
   -6.0289    0.0932    1.7069 H   0  0  0  0  0  0  0  0  0  0  0  0
   -4.5026   -0.6988    1.4954 H   0  0  0  0  0  0  0  0  0  0  0  0
  1  2  1  0  0  0  0
  2  3  1  0  0  0  0
  2  4  1  0  0  0  0
  2  5  1  0  0  0  0
  5  6  1  0  0  0  0
  5  7  1  0  0  0  0
  5  8  1  0  0  0  0
  8  9  1  0  0  0  0
  9 10  1  0  0  0  0
  9 11  1  0  0  0  0
  9 12  1  0  0  0  0
  8 13  1  0  0  0  0
 13 14  1  0  0  0  0
 13 15  1  0  0  0  0
 13 16  1  0  0  0  0
  8 17  1  0  0  0  0
 17 18  1  0  0  0  0
 17 19  1  0  0  0  0
 17 20  1  0  0  0  0
  1 21  1  0  0  0  0
 22 23  4  0  0  0  0
 22 24  4  0  0  0  0
 24 25  1  0  0  0  0
 24 26  1  0  0  0  0
 22 27  4  0  0  0  0
 27 28  1  0  0  0  0
 27 29  1  0  0  0  0
 30 31  4  0  0  0  0
 30 32  1  0  0  0  0
 32 33  1  0  0  0  0
 32 34  1  0  0  0  0
 30 35  4  0  0  0  0
 35 36  1  0  0  0  0
 35 37  1  0  0  0  0
 38 39  2  0  0  0  0
 38 40  4  0  0  0  0
 40 41  1  0  0  0  0
 40 42  1  0  0  0  0
 38 43  1  0  0  0  0
 43 44  1  0  0  0  0
 43 45  1  0  0  0  0
 46 47  4  0  0  0  0
 46 48  4  0  0  0  0
 48 49  1  0  0  0  0
 48 50  1  0  0  0  0
 46 51  4  0  0  0  0
 51 52  1  0  0  0  0
 51 53  1  0  0  0  0
M  CHG  1   1   1
M  END
