 xtb: 6.6.1 (unknown-commit)
          01102415403D

 53 48  0     0  0            999 V2000
   -0.5323    0.5291   -1.7251 O   0  0  0  0  0  0  0  0  0  0  0  0
    0.6516   -0.1570   -1.9983 C   0  0  0  0  0  0  0  0  0  0  0  0
    0.4371   -0.8372   -2.8262 H   0  0  0  0  0  0  0  0  0  0  0  0
    1.4356    0.5354   -2.3342 H   0  0  0  0  0  0  0  0  0  0  0  0
    1.2264   -0.9094   -0.7856 C   0  0  0  0  0  0  0  0  0  0  0  0
    1.2911   -0.2156    0.0562 H   0  0  0  0  0  0  0  0  0  0  0  0
    2.2318   -1.2507   -1.0386 H   0  0  0  0  0  0  0  0  0  0  0  0
    0.4503   -2.0850   -0.3101 N   0  0  0  0  0  0  0  0  0  0  0  0
   -0.8924   -1.6820    0.1407 C   0  0  0  0  0  0  0  0  0  0  0  0
   -0.7970   -0.9809    0.9659 H   0  0  0  0  0  0  0  0  0  0  0  0
   -1.4253   -2.5715    0.4717 H   0  0  0  0  0  0  0  0  0  0  0  0
   -1.4303   -1.1969   -0.6705 H   0  0  0  0  0  0  0  0  0  0  0  0
    1.1623   -2.6662    0.8429 C   0  0  0  0  0  0  0  0  0  0  0  0
    1.2769   -1.9072    1.6166 H   0  0  0  0  0  0  0  0  0  0  0  0
    2.1455   -3.0193    0.5398 H   0  0  0  0  0  0  0  0  0  0  0  0
    0.5804   -3.5032    1.2253 H   0  0  0  0  0  0  0  0  0  0  0  0
    0.3128   -3.1159   -1.3499 C   0  0  0  0  0  0  0  0  0  0  0  0
    1.2914   -3.3968   -1.7341 H   0  0  0  0  0  0  0  0  0  0  0  0
   -0.3050   -2.7517   -2.1664 H   0  0  0  0  0  0  0  0  0  0  0  0
   -0.1706   -3.9853   -0.9035 H   0  0  0  0  0  0  0  0  0  0  0  0
   -0.3181    1.2810   -1.1351 H   0  0  0  0  0  0  0  0  0  0  0  0
    1.6727    2.7489   -0.0693 C   0  0  0  0  0  0  0  0  0  0  0  0
    0.4485    2.4961   -0.1186 O   0  0  0  0  0  0  0  0  0  0  0  0
    2.4774    2.0242    0.7405 N   0  0  0  0  0  0  0  0  0  0  0  0
    2.0573    1.3678    1.3940 H   0  0  0  0  0  0  0  0  0  0  0  0
    3.4303    2.2998    0.8936 H   0  0  0  0  0  0  0  0  0  0  0  0
    2.2240    3.6889   -0.8288 N   0  0  0  0  0  0  0  0  0  0  0  0
    3.2085    3.8790   -0.7814 H   0  0  0  0  0  0  0  0  0  0  0  0
    1.6569    4.2202   -1.5143 H   0  0  0  0  0  0  0  0  0  0  0  0
   -0.4634    4.8513   -2.7623 C   0  0  0  0  0  0  0  0  0  0  0  0
    0.7500    5.0089   -2.6779 O   0  0  0  0  0  0  0  0  0  0  0  0
   -1.1633    4.1227   -1.8651 N   0  0  0  0  0  0  0  0  0  0  0  0
   -0.6416    3.5703   -1.1902 H   0  0  0  0  0  0  0  0  0  0  0  0
   -2.1178    3.8688   -2.0428 H   0  0  0  0  0  0  0  0  0  0  0  0
   -1.1780    5.4064   -3.7754 N   0  0  0  0  0  0  0  0  0  0  0  0
   -2.1812    5.4379   -3.7524 H   0  0  0  0  0  0  0  0  0  0  0  0
   -0.7021    6.0676   -4.3643 H   0  0  0  0  0  0  0  0  0  0  0  0
    0.0883    0.7146    2.9052 C   0  0  0  0  0  0  0  0  0  0  0  0
    1.0070    0.1371    2.3171 O   0  0  0  0  0  0  0  0  0  0  0  0
   -0.6417    1.6687    2.3058 N   0  0  0  0  0  0  0  0  0  0  0  0
   -0.3364    2.0084    1.3893 H   0  0  0  0  0  0  0  0  0  0  0  0
   -1.3311    2.1964    2.8089 H   0  0  0  0  0  0  0  0  0  0  0  0
   -0.2825    0.3479    4.1576 N   0  0  0  0  0  0  0  0  0  0  0  0
   -0.9292    0.8983    4.6932 H   0  0  0  0  0  0  0  0  0  0  0  0
    0.3110   -0.2917    4.6562 H   0  0  0  0  0  0  0  0  0  0  0  0
   -1.7458   -5.8075    1.1763 C   0  0  0  0  0  0  0  0  0  0  0  0
   -1.1540   -4.8044    0.7988 O   0  0  0  0  0  0  0  0  0  0  0  0
   -1.5673   -7.0147    0.5909 N   0  0  0  0  0  0  0  0  0  0  0  0
   -0.8690   -7.1097   -0.1242 H   0  0  0  0  0  0  0  0  0  0  0  0
   -1.9928   -7.8497    0.9492 H   0  0  0  0  0  0  0  0  0  0  0  0
   -2.6221   -5.7810    2.2079 N   0  0  0  0  0  0  0  0  0  0  0  0
   -3.1707   -6.5813    2.4632 H   0  0  0  0  0  0  0  0  0  0  0  0
   -2.8533   -4.8961    2.6221 H   0  0  0  0  0  0  0  0  0  0  0  0
  1  2  1  0  0  0  0
  2  3  1  0  0  0  0
  2  4  1  0  0  0  0
  2  5  1  0  0  0  0
  5  6  1  0  0  0  0
  5  7  1  0  0  0  0
  5  8  1  0  0  0  0
  8  9  1  0  0  0  0
  9 10  1  0  0  0  0
  9 11  1  0  0  0  0
  9 12  1  0  0  0  0
  8 13  1  0  0  0  0
 13 14  1  0  0  0  0
 13 15  1  0  0  0  0
 13 16  1  0  0  0  0
  8 17  1  0  0  0  0
 17 18  1  0  0  0  0
 17 19  1  0  0  0  0
 17 20  1  0  0  0  0
  1 21  1  0  0  0  0
 22 23  4  0  0  0  0
 22 24  4  0  0  0  0
 24 25  1  0  0  0  0
 24 26  1  0  0  0  0
 22 27  4  0  0  0  0
 27 28  1  0  0  0  0
 27 29  1  0  0  0  0
 30 31  2  0  0  0  0
 30 32  4  0  0  0  0
 32 33  1  0  0  0  0
 32 34  1  0  0  0  0
 30 35  1  0  0  0  0
 35 36  1  0  0  0  0
 35 37  1  0  0  0  0
 38 39  4  0  0  0  0
 38 40  4  0  0  0  0
 40 41  1  0  0  0  0
 40 42  1  0  0  0  0
 38 43  4  0  0  0  0
 43 44  1  0  0  0  0
 43 45  1  0  0  0  0
 46 47  2  0  0  0  0
 46 48  4  0  0  0  0
 48 49  1  0  0  0  0
 48 50  1  0  0  0  0
 46 51  4  0  0  0  0
 51 52  1  0  0  0  0
 51 53  1  0  0  0  0
M  CHG  1   1   1
M  END
