  53

 O         -1.7877941618       -2.5678012463        1.3556194459
 C         -0.4442378827       -2.9437298991        1.2576857619
 H         -0.3834419164       -4.0187876048        1.4696399768
 H         -0.0517136999       -2.7768750563        0.2511284121
 C          0.4685369627       -2.2611890723        2.2996111037
 H          1.4761742396       -2.6509362316        2.1438663217
 H          0.1294261055       -2.5439556377        3.2982106678
 N          0.5278424426       -0.7766947427        2.2445388057
 C          1.7014158284       -0.3026742853        2.9968887026
 H          1.6721600554       -0.6695478860        4.0212412602
 H          1.6889977994        0.7872832762        2.9979214030
 H          2.6163897506       -0.6473671841        2.5193898698
 C         -0.6769383425       -0.1836870036        2.8514699664
 H         -0.7103506625       -0.4108607388        3.9152441245
 H         -1.5670004396       -0.5897957986        2.3771130920
 H         -0.6341424874        0.8958098791        2.7116696976
 C          0.6428547479       -0.2923742659        0.8594347661
 H          1.4497896027       -0.8030423293        0.3383434800
 H          0.8342872028        0.7802180783        0.8910867443
 H         -0.2940518100       -0.4584891549        0.3342509449
 H         -2.0080237439       -1.9602905648        0.6140392141
 C          2.2172756878       -2.7635191046       -2.5056314760
 O          2.0735123464       -1.9023897016       -1.6433478701
 N          1.4847808760       -2.7741281624       -3.6428923678
 H          0.7447377685       -2.1027603956       -3.7538190682
 H          1.5508413480       -3.5211813440       -4.3096496622
 N          3.1130695261       -3.7688528736       -2.3709534495
 H          3.3125522812       -4.4048046312       -3.1215363675
 H          3.7566070945       -3.7340495752       -1.6005190397
 C          0.4818786058        3.6998895386        1.6771755544
 O          0.6614264463        2.5308053640        2.0060784030
 N          0.1732315716        4.0680153090        0.4185682757
 H         -0.0794568260        3.3654507686       -0.2748643226
 H         -0.0866691352        5.0174797635        0.2199332369
 N          0.5889633743        4.7092975118        2.5823894269
 H          0.5817746046        5.6724962773        2.3000253772
 H          0.9516763036        4.4934177096        3.4938042328
 C          0.3829401946        1.3523954208       -1.8936891992
 O         -0.4837246100        2.1811043847       -1.5964251779
 N          0.1002461724        0.0670649964       -2.1903306136
 H         -0.8111721307       -0.2609479338       -1.8838678074
 H          0.8547630063       -0.6098579018       -2.0879757193
 N          1.6903255159        1.6988126412       -1.9485751104
 H          2.3794644177        1.0410795288       -2.2649256010
 H          1.9397210537        2.6702702121       -1.8940939922
 C         -3.1454123234        0.0169026652       -0.6166315623
 O         -2.1587449447       -0.7340710521       -0.5793101110
 N         -3.0570823850        1.2657083814       -1.0806936973
 H         -2.1376097309        1.6459459195       -1.3353943056
 H         -3.8524862575        1.8772772025       -1.0893489644
 N         -4.3469179798       -0.4031840320       -0.1567478336
 H         -5.1782240393        0.1465827244       -0.2752636512
 H         -4.4519530595       -1.3674658446        0.1073170407
