  53

 O         -2.8005013044        1.1466113108       -0.9075333275
 C         -2.4919672191       -0.1665504636       -1.3526957189
 H         -2.4240862196       -0.8448087057       -0.4970352158
 H         -3.2941033412       -0.5236041116       -2.0128018700
 C         -1.2061692296       -0.1448351757       -2.1764877882
 H         -1.2133496965        0.7540251046       -2.8028678569
 H         -1.1881879559       -1.0294658971       -2.8146358527
 N          0.0664701236       -0.1104342479       -1.4115103302
 C          0.1144787339        1.0631895032       -0.5271902515
 H         -0.0139105196        1.9587401079       -1.1319594572
 H          1.0843646576        1.0806096536       -0.0340485154
 H         -0.6744121325        1.0040340770        0.2162052124
 C          1.1755263329        0.0131410843       -2.3745131539
 H          1.1882400083       -0.8406251603       -3.0485054184
 H          2.1108024397        0.0515223975       -1.8177682913
 H          1.0500373260        0.9282173355       -2.9503688006
 C          0.2625067975       -1.3298602145       -0.6150008669
 H          0.2721575258       -2.2036457443       -1.2631761372
 H         -0.5260660988       -1.4392481136        0.1250120679
 H          1.2171070603       -1.2506776898       -0.0957580812
 H         -3.5489558533        1.0972051708       -0.3047663099
 C          3.9555121519       -0.5765149319        0.7913726473
 O          3.0215415575       -0.0815675429        0.1717407543
 N          5.2328400955       -0.5054519672        0.3335551934
 H          5.4192321830        0.0863963086       -0.4566169518
 H          6.0118848870       -0.7815109641        0.9033654891
 N          3.7802473645       -1.2140637842        1.9723146821
 H          4.5172942874       -1.7795921866        2.3547874689
 H          2.8218927032       -1.4416528774        2.2395125559
 C         -1.2256809965        3.5127337529       -3.3908397534
 O         -0.4212445732        2.5946018512       -3.2909385651
 N         -2.3192148187        3.5916685885       -2.5958231499
 H         -2.5300351831        2.8095086349       -1.9916585935
 H         -3.0342604830        4.2767591690       -2.7573385025
 N         -1.0732268490        4.5069161008       -4.2979528577
 H         -1.6663492982        5.3161189229       -4.3095588042
 H         -0.2245364166        4.5317625280       -4.8344163523
 C         -2.1282859774       -2.8735628964        1.9195203802
 O         -2.2549078338       -1.7315248426        1.4636766408
 N         -3.1577926784       -3.7528406256        1.8889022695
 H         -4.0588121715       -3.4276796465        1.5876682072
 H         -3.1011691051       -4.6515887181        2.3315326288
 N         -0.9637261309       -3.3128204700        2.4162646877
 H         -0.8769300550       -4.2281615446        2.8175565151
 H         -0.1709083989       -2.6694036855        2.4796253375
 C          0.6611746559       -0.2353395560        2.9128823834
 O          1.0433659444       -1.3737961125        2.6288664309
 N          1.4885122877        0.6546988566        3.5087066452
 H          2.4627477682        0.4179309875        3.5834707250
 H          1.2292236901        1.6180733493        3.6191518024
 N         -0.5869290077        0.1866776067        2.6381920887
 H         -0.9330265431        1.0454613830        3.0260071032
 H         -1.2605772549       -0.4905157639        2.2718638571
