 xtb: 6.6.1 (unknown-commit)
          01102418233D

 53 48  0     0  0            999 V2000
    1.1190   -1.6136    2.4364 O   0  0  0  0  0  0  0  0  0  0  0  0
   -0.0923   -1.0320    2.0497 C   0  0  0  0  0  0  0  0  0  0  0  0
   -0.7652   -1.1084    2.9079 H   0  0  0  0  0  0  0  0  0  0  0  0
    0.0355    0.0385    1.8246 H   0  0  0  0  0  0  0  0  0  0  0  0
   -0.6931   -1.6329    0.7778 C   0  0  0  0  0  0  0  0  0  0  0  0
    0.0755   -1.5818    0.0044 H   0  0  0  0  0  0  0  0  0  0  0  0
   -1.5460   -1.0272    0.4716 H   0  0  0  0  0  0  0  0  0  0  0  0
   -1.1514   -3.0480    0.8424 N   0  0  0  0  0  0  0  0  0  0  0  0
   -0.0396   -3.9424    1.2061 C   0  0  0  0  0  0  0  0  0  0  0  0
    0.7975   -3.7784    0.5287 H   0  0  0  0  0  0  0  0  0  0  0  0
   -0.3607   -4.9804    1.1466 H   0  0  0  0  0  0  0  0  0  0  0  0
    0.3011   -3.7235    2.2163 H   0  0  0  0  0  0  0  0  0  0  0  0
   -1.6473   -3.4021   -0.4995 C   0  0  0  0  0  0  0  0  0  0  0  0
   -0.8354   -3.3336   -1.2201 H   0  0  0  0  0  0  0  0  0  0  0  0
   -2.4374   -2.7096   -0.7884 H   0  0  0  0  0  0  0  0  0  0  0  0
   -2.0360   -4.4186   -0.4998 H   0  0  0  0  0  0  0  0  0  0  0  0
   -2.2544   -3.1904    1.8033 C   0  0  0  0  0  0  0  0  0  0  0  0
   -1.9118   -2.9600    2.8091 H   0  0  0  0  0  0  0  0  0  0  0  0
   -2.6307   -4.2118    1.7905 H   0  0  0  0  0  0  0  0  0  0  0  0
   -3.0591   -2.5096    1.5303 H   0  0  0  0  0  0  0  0  0  0  0  0
    1.6742   -1.7201    1.6290 H   0  0  0  0  0  0  0  0  0  0  0  0
    2.7608   -0.7634   -0.4190 C   0  0  0  0  0  0  0  0  0  0  0  0
    2.2250   -1.8140   -0.0586 O   0  0  0  0  0  0  0  0  0  0  0  0
    3.1931   -0.5885   -1.6972 N   0  0  0  0  0  0  0  0  0  0  0  0
    3.3311   -1.4156   -2.2527 H   0  0  0  0  0  0  0  0  0  0  0  0
    3.7765    0.2053   -1.9017 H   0  0  0  0  0  0  0  0  0  0  0  0
    2.9220    0.2929    0.3954 N   0  0  0  0  0  0  0  0  0  0  0  0
    3.1259    1.2074    0.0053 H   0  0  0  0  0  0  0  0  0  0  0  0
    2.5294    0.2529    1.3205 H   0  0  0  0  0  0  0  0  0  0  0  0
    2.3892    3.7184   -0.1134 C   0  0  0  0  0  0  0  0  0  0  0  0
    2.8657    2.8288   -0.8276 O   0  0  0  0  0  0  0  0  0  0  0  0
    3.0780    4.8528    0.1347 N   0  0  0  0  0  0  0  0  0  0  0  0
    3.9949    4.9541   -0.2623 H   0  0  0  0  0  0  0  0  0  0  0  0
    2.7276    5.5793    0.7311 H   0  0  0  0  0  0  0  0  0  0  0  0
    1.1845    3.5884    0.4680 N   0  0  0  0  0  0  0  0  0  0  0  0
    0.7736    4.3458    0.9824 H   0  0  0  0  0  0  0  0  0  0  0  0
    0.5971    2.7887    0.2226 H   0  0  0  0  0  0  0  0  0  0  0  0
   -0.1586    0.9616   -1.5032 C   0  0  0  0  0  0  0  0  0  0  0  0
   -0.4018    1.3936   -0.3654 O   0  0  0  0  0  0  0  0  0  0  0  0
    0.8970    1.3878   -2.2112 N   0  0  0  0  0  0  0  0  0  0  0  0
    1.6188    1.9487   -1.7525 H   0  0  0  0  0  0  0  0  0  0  0  0
    1.1342    0.9511   -3.0834 H   0  0  0  0  0  0  0  0  0  0  0  0
   -0.9487    0.0238   -2.0750 N   0  0  0  0  0  0  0  0  0  0  0  0
   -0.8498   -0.1885   -3.0515 H   0  0  0  0  0  0  0  0  0  0  0  0
   -1.8329   -0.2085   -1.6292 H   0  0  0  0  0  0  0  0  0  0  0  0
   -3.8473    0.3766   -0.1037 C   0  0  0  0  0  0  0  0  0  0  0  0
   -3.3056   -0.6440   -0.5415 O   0  0  0  0  0  0  0  0  0  0  0  0
   -5.1874    0.4303    0.0843 N   0  0  0  0  0  0  0  0  0  0  0  0
   -5.7486   -0.3239   -0.2702 H   0  0  0  0  0  0  0  0  0  0  0  0
   -5.6520    1.2855    0.3301 H   0  0  0  0  0  0  0  0  0  0  0  0
   -3.1346    1.4531    0.2622 N   0  0  0  0  0  0  0  0  0  0  0  0
   -3.5829    2.2908    0.5842 H   0  0  0  0  0  0  0  0  0  0  0  0
   -2.1226    1.4630    0.1094 H   0  0  0  0  0  0  0  0  0  0  0  0
  1  2  1  0  0  0  0
  2  3  1  0  0  0  0
  2  4  1  0  0  0  0
  2  5  1  0  0  0  0
  5  6  1  0  0  0  0
  5  7  1  0  0  0  0
  5  8  1  0  0  0  0
  8  9  1  0  0  0  0
  9 10  1  0  0  0  0
  9 11  1  0  0  0  0
  9 12  1  0  0  0  0
  8 13  1  0  0  0  0
 13 14  1  0  0  0  0
 13 15  1  0  0  0  0
 13 16  1  0  0  0  0
  8 17  1  0  0  0  0
 17 18  1  0  0  0  0
 17 19  1  0  0  0  0
 17 20  1  0  0  0  0
  1 21  1  0  0  0  0
 22 23  4  0  0  0  0
 22 24  1  0  0  0  0
 24 25  1  0  0  0  0
 24 26  1  0  0  0  0
 22 27  4  0  0  0  0
 27 28  1  0  0  0  0
 27 29  1  0  0  0  0
 30 31  4  0  0  0  0
 30 32  4  0  0  0  0
 32 33  1  0  0  0  0
 32 34  1  0  0  0  0
 30 35  4  0  0  0  0
 35 36  1  0  0  0  0
 35 37  1  0  0  0  0
 38 39  4  0  0  0  0
 38 40  4  0  0  0  0
 40 41  1  0  0  0  0
 40 42  1  0  0  0  0
 38 43  4  0  0  0  0
 43 44  1  0  0  0  0
 43 45  1  0  0  0  0
 46 47  4  0  0  0  0
 46 48  4  0  0  0  0
 48 49  1  0  0  0  0
 48 50  1  0  0  0  0
 46 51  4  0  0  0  0
 51 52  1  0  0  0  0
 51 53  1  0  0  0  0
M  CHG  1   1   1
M  END
