  53

 O         -1.4389101851       -0.8716075071       -3.0712307404
 C         -0.5269682733       -0.0743587345       -2.3421869694
 H          0.3345675789        0.1861004521       -2.9722849858
 H         -0.9929828492        0.8626085953       -2.0189513640
 C         -0.0648790573       -0.7683041826       -1.0626595607
 H         -0.9089831185       -0.9073643260       -0.3840827523
 H          0.6709526255       -0.1049318682       -0.6048227277
 N          0.5758677194       -2.1020347558       -1.2197741967
 C         -0.4384728519       -3.1254125518       -1.5214693154
 H         -1.1319521587       -3.1766188572       -0.6821452751
 H          0.0400991441       -4.0924285770       -1.6605279615
 H         -0.9833363594       -2.8499452953       -2.4200662486
 C          1.2100338687       -2.4301549757        0.0692073694
 H          0.4524742364       -2.3941553517        0.8511638376
 H          1.9978259213       -1.7080467688        0.2723964619
 H          1.6359607778       -3.4303309058        0.0263350710
 C          1.6063799211       -2.0760534583       -2.2656297270
 H          2.3083219214       -1.2719029158       -2.0483876050
 H          1.1494947872       -1.9237682918       -3.2400475055
 H          2.1424993061       -3.0232733082       -2.2767348492
 H         -1.9330661250       -0.3197612396       -3.6841091959
 C          0.0602419207        0.5468601079        2.2715964505
 O         -1.1293594761        0.8802522511        2.2708461404
 N          0.4932397634       -0.5080505073        3.0061725225
 H         -0.1467460186       -0.9271262791        3.6580274673
 H          1.4749827657       -0.6677533576        3.1417507540
 N          0.9849877240        1.2010411905        1.5506729688
 H          1.8877762550        0.7877363984        1.3780774636
 H          0.6474579563        1.8413053742        0.8304812481
 C         -1.0288835856        3.3296025044       -0.3907982962
 O          0.0204605420        2.7150251051       -0.6131344410
 N         -1.4101399346        4.3612464691       -1.1878503063
 H         -0.7560055398        4.7040026621       -1.8687138832
 H         -2.1851250037        4.9516089076       -0.9457079834
 N         -1.8630365210        2.9852930990        0.5962928550
 H         -2.6984321410        3.5104025295        0.7787145031
 H         -1.6227196599        2.2132216629        1.2274727924
 C         -2.6627032781       -2.3184832072        1.9252819543
 O         -1.6928433815       -2.3926086324        1.1769434682
 N         -2.8658778458       -1.2690123309        2.7461259854
 H         -2.2983686682       -0.4319135626        2.6043976146
 H         -3.7411102893       -1.1631149657        3.2271714612
 N         -3.5941950574       -3.3091583695        1.9776086109
 H         -4.3055125715       -3.3212801245        2.6858519058
 H         -3.4012275883       -4.1705849905        1.4984564816
 C          3.4601614201        1.2125738607       -0.9330104667
 O          2.9025154227        0.2420507978       -0.4229077007
 N          4.8000723703        1.2233643976       -1.1390346568
 H          5.3466629653        0.4493355618       -0.8071883392
 H          5.2817683839        2.0246571468       -1.5027036288
 N          2.7826375316        2.2908553157       -1.3726827158
 H          3.2740674364        3.1070590249       -1.6893176837
 H          1.7978631160        2.3919958283       -1.1575635331
