  53

 O          3.0972471441       -0.0548644839       -0.1731235422
 C          3.0095792191        1.2843564853       -0.5539139200
 H          3.8565448182        1.7974592075       -0.0894711023
 H          3.1150245303        1.3908130475       -1.6428897697
 C          1.6834220365        1.9722273252       -0.1854433905
 H          0.8573923454        1.4954481848       -0.7197965824
 H          1.7557633916        3.0125491645       -0.5090516772
 N          1.3179945125        1.9571201826        1.2563233452
 C          0.8561190583        0.6159393277        1.6559332145
 H         -0.0148938984        0.3528615817        1.0581753345
 H          0.5894103572        0.6444677098        2.7105492746
 H          1.6484410289       -0.1096636860        1.4894189770
 C          0.1997686664        2.8940264164        1.4625899274
 H         -0.6343503799        2.5935232939        0.8308305173
 H          0.5036816102        3.9081116331        1.2117586111
 H         -0.0966245131        2.8554349613        2.5093053917
 C          2.4408387863        2.3512798313        2.1192404449
 H          2.8322112561        3.3186752962        1.8100659334
 H          3.2292564211        1.6044840343        2.0686684270
 H          2.0759687481        2.4141446534        3.1442175737
 H          2.4389878699       -0.5652309962       -0.7065346046
 C          1.6596858549       -2.3648803150       -2.3264741772
 O          1.3348290055       -1.3361399411       -1.7246482452
 N          2.9157727434       -2.8551700037       -2.2191306666
 H          3.5676540400       -2.3878011974       -1.6130266341
 H          3.2001128599       -3.7077574011       -2.6645980446
 N          0.8062751889       -3.0441659344       -3.1063398269
 H          1.1082785134       -3.8510473291       -3.6209901847
 H         -0.1452450080       -2.7205423118       -3.2471853192
 C          0.0953345481        2.0859446568        5.6773672875
 O          0.4493692582        2.0828921597        4.5070420318
 N         -0.8692603222        1.2545319490        6.1413202352
 H         -1.3746661282        0.6924132139        5.4803383251
 H         -1.2340458402        1.3309061603        7.0729425656
 N          0.6403630396        2.9190134703        6.5962015347
 H          0.4222598884        2.8499852820        7.5731583732
 H          1.4240401889        3.4860130914        6.3267207984
 C         -3.0147988052       -2.9300684507       -3.1005798323
 O         -1.9926471563       -2.4255382628       -3.5544973156
 N         -3.3528520603       -4.2157589926       -3.3710073426
 H         -2.8278044261       -4.6982987772       -4.0791374524
 H         -4.2566470194       -4.5825042613       -3.1326806005
 N         -3.8586797471       -2.2528319737       -2.2922702945
 H         -4.6512074478       -2.7019026400       -1.8713936696
 H         -3.6137611683       -1.3205697871       -1.9839886823
 C         -1.7820782703        0.6437311579       -1.6270239202
 O         -1.3699395098        1.1433702800       -0.5882181978
 N         -3.1263276037        0.6965085230       -1.9683094329
 H         -3.6627664356        1.3726197090       -1.4445049578
 H         -3.3374906187        0.6797033983       -2.9548641337
 N         -1.0005783369        0.0048820793       -2.5117549318
 H         -1.4338222448       -0.6233129078       -3.1803007753
 H         -0.0892761126       -0.3152321534       -2.1871372623
