53
 xtb: 6.6.1 (unknown-commit)
O            3.09921633346547       -0.04572238881223       -0.17810153914260
C            3.00655828712779        1.29183210530317       -0.55869082651962
H            3.85549218067150        1.80041043705991       -0.09141986256026
H            3.11343838025377        1.39290408695404       -1.64435713898308
C            1.67907468993830        1.97590495318763       -0.18790359038306
H            0.85626285562615        1.49576209098726       -0.72002847237327
H            1.75345396682719        3.01364037477645       -0.50990188140714
N            1.31639336452763        1.96039891731674        1.25443731239160
C            0.85881853026343        0.61782073298101        1.65524356951324
H           -0.01426529889604        0.35274386463134        1.05849537607561
H            0.59080456135005        0.64468085927256        2.71050482592295
H            1.64964746522003       -0.10855255400566        1.48874676878335
C            0.19637498305153        2.89431297894827        1.46288599023985
H           -0.63552493172655        2.59289291287840        0.83152463827771
H            0.50179389833877        3.90838424456736        1.21149725338329
H           -0.09675439625581        2.85549289038725        2.50962689739227
C            2.44004119746170        2.35737609182682        2.11521656237717
H            2.83114239565336        3.32067239347585        1.80856134416435
H            3.22951245845099        1.60676654173910        2.06714467406661
H            2.07618407260881        2.41582086284527        3.14321430573953
H            2.43954872911193       -0.56355819750704       -0.70730163211600
C            1.66305560780920       -2.36091739301343       -2.32709105094421
O            1.33663102751845       -1.33278625859299       -1.72437755029720
N            2.92092914804947       -2.84745209784735       -2.22187453390357
H            3.56885536959149       -2.38543928351640       -1.61382153432971
H            3.20185815573130       -3.70555985778973       -2.66536935756218
N            0.81068671889853       -3.04184716098744       -3.10613899383385
H            1.10986628253373       -3.85010754657996       -3.62119611302076
H           -0.14431762351318       -2.72051123997501       -3.24686896172666
C            0.09454712265430        2.08669573171216        5.67522897926360
O            0.45564150705806        2.08792787980740        4.50672345706646
N           -0.98460007916722        1.36408820745488        6.09614330630368
H           -1.42494753654907        0.74829091295086        5.46048842838445
H           -1.26422599297231        1.36283602317477        7.06091115367567
N            0.74596898727872        2.80557980713675        6.63414162464315
H            0.44619801539478        2.81612819233588        7.58209673369043
H            1.47328027019970        3.43055369763645        6.34497605215850
C           -3.01075630078915       -2.93695619917270       -3.09850303697395
O           -1.98980942531392       -2.42974264682021       -3.55207359915321
N           -3.34487506170574       -4.22385786501653       -3.37000860241935
H           -2.82538828932362       -4.69987214324633       -4.07903523385441
H           -4.25418542590512       -4.58547567766951       -3.13232524521991
N           -3.85594679916590       -2.26357029261925       -2.28893630792986
H           -4.65001381435379       -2.70555185232189       -1.87042281005156
H           -3.61367511985113       -1.32337392164992       -1.98278883439216
C           -1.78645298615264        0.63884276745661       -1.62161590648383
O           -1.37617970090875        1.13839261519896       -0.58181358816124
N           -3.13125753347571        0.68796397634483       -1.96224913803017
H           -3.66452164454012        1.36996622713716       -1.44283583261415
H           -3.33884122414057        0.67732409411797       -2.95322505568735
N           -1.00393643725086        0.00196683874538       -2.50637902862813
H           -1.43435819920595       -0.62424122404288       -3.17896257331025
H           -0.08991064430418       -0.31544793202011       -2.18589943662560
