 xtb: 6.6.1 (unknown-commit)
          01102418333D

 53 48  0     0  0            999 V2000
    3.0972   -0.0549   -0.1731 O   0  0  0  0  0  0  0  0  0  0  0  0
    3.0096    1.2843   -0.5539 C   0  0  0  0  0  0  0  0  0  0  0  0
    3.8566    1.7974   -0.0895 H   0  0  0  0  0  0  0  0  0  0  0  0
    3.1150    1.3908   -1.6429 H   0  0  0  0  0  0  0  0  0  0  0  0
    1.6834    1.9722   -0.1855 C   0  0  0  0  0  0  0  0  0  0  0  0
    0.8574    1.4954   -0.7198 H   0  0  0  0  0  0  0  0  0  0  0  0
    1.7558    3.0125   -0.5091 H   0  0  0  0  0  0  0  0  0  0  0  0
    1.3180    1.9571    1.2563 N   0  0  0  0  0  0  0  0  0  0  0  0
    0.8561    0.6159    1.6559 C   0  0  0  0  0  0  0  0  0  0  0  0
   -0.0149    0.3529    1.0582 H   0  0  0  0  0  0  0  0  0  0  0  0
    0.5894    0.6445    2.7105 H   0  0  0  0  0  0  0  0  0  0  0  0
    1.6484   -0.1097    1.4894 H   0  0  0  0  0  0  0  0  0  0  0  0
    0.1998    2.8940    1.4626 C   0  0  0  0  0  0  0  0  0  0  0  0
   -0.6343    2.5935    0.8308 H   0  0  0  0  0  0  0  0  0  0  0  0
    0.5037    3.9081    1.2118 H   0  0  0  0  0  0  0  0  0  0  0  0
   -0.0966    2.8554    2.5093 H   0  0  0  0  0  0  0  0  0  0  0  0
    2.4409    2.3513    2.1192 C   0  0  0  0  0  0  0  0  0  0  0  0
    2.8322    3.3187    1.8101 H   0  0  0  0  0  0  0  0  0  0  0  0
    3.2293    1.6045    2.0687 H   0  0  0  0  0  0  0  0  0  0  0  0
    2.0760    2.4141    3.1442 H   0  0  0  0  0  0  0  0  0  0  0  0
    2.4390   -0.5652   -0.7065 H   0  0  0  0  0  0  0  0  0  0  0  0
    1.6597   -2.3649   -2.3265 C   0  0  0  0  0  0  0  0  0  0  0  0
    1.3348   -1.3361   -1.7247 O   0  0  0  0  0  0  0  0  0  0  0  0
    2.9158   -2.8552   -2.2191 N   0  0  0  0  0  0  0  0  0  0  0  0
    3.5676   -2.3878   -1.6130 H   0  0  0  0  0  0  0  0  0  0  0  0
    3.2001   -3.7078   -2.6646 H   0  0  0  0  0  0  0  0  0  0  0  0
    0.8062   -3.0442   -3.1063 N   0  0  0  0  0  0  0  0  0  0  0  0
    1.1082   -3.8511   -3.6210 H   0  0  0  0  0  0  0  0  0  0  0  0
   -0.1453   -2.7205   -3.2472 H   0  0  0  0  0  0  0  0  0  0  0  0
    0.0954    2.0860    5.6774 C   0  0  0  0  0  0  0  0  0  0  0  0
    0.4494    2.0829    4.5070 O   0  0  0  0  0  0  0  0  0  0  0  0
   -0.8692    1.2545    6.1413 N   0  0  0  0  0  0  0  0  0  0  0  0
   -1.3746    0.6924    5.4803 H   0  0  0  0  0  0  0  0  0  0  0  0
   -1.2340    1.3309    7.0729 H   0  0  0  0  0  0  0  0  0  0  0  0
    0.6404    2.9190    6.5962 N   0  0  0  0  0  0  0  0  0  0  0  0
    0.4223    2.8500    7.5732 H   0  0  0  0  0  0  0  0  0  0  0  0
    1.4241    3.4860    6.3267 H   0  0  0  0  0  0  0  0  0  0  0  0
   -3.0148   -2.9301   -3.1006 C   0  0  0  0  0  0  0  0  0  0  0  0
   -1.9927   -2.4255   -3.5545 O   0  0  0  0  0  0  0  0  0  0  0  0
   -3.3529   -4.2157   -3.3710 N   0  0  0  0  0  0  0  0  0  0  0  0
   -2.8278   -4.6983   -4.0791 H   0  0  0  0  0  0  0  0  0  0  0  0
   -4.2567   -4.5825   -3.1327 H   0  0  0  0  0  0  0  0  0  0  0  0
   -3.8587   -2.2528   -2.2923 N   0  0  0  0  0  0  0  0  0  0  0  0
   -4.6512   -2.7019   -1.8714 H   0  0  0  0  0  0  0  0  0  0  0  0
   -3.6138   -1.3206   -1.9840 H   0  0  0  0  0  0  0  0  0  0  0  0
   -1.7821    0.6437   -1.6270 C   0  0  0  0  0  0  0  0  0  0  0  0
   -1.3699    1.1434   -0.5882 O   0  0  0  0  0  0  0  0  0  0  0  0
   -3.1263    0.6965   -1.9683 N   0  0  0  0  0  0  0  0  0  0  0  0
   -3.6628    1.3726   -1.4445 H   0  0  0  0  0  0  0  0  0  0  0  0
   -3.3375    0.6797   -2.9549 H   0  0  0  0  0  0  0  0  0  0  0  0
   -1.0006    0.0049   -2.5118 N   0  0  0  0  0  0  0  0  0  0  0  0
   -1.4338   -0.6233   -3.1803 H   0  0  0  0  0  0  0  0  0  0  0  0
   -0.0893   -0.3152   -2.1871 H   0  0  0  0  0  0  0  0  0  0  0  0
  1  2  1  0  0  0  0
  2  3  1  0  0  0  0
  2  4  1  0  0  0  0
  2  5  1  0  0  0  0
  5  6  1  0  0  0  0
  5  7  1  0  0  0  0
  5  8  1  0  0  0  0
  8  9  1  0  0  0  0
  9 10  1  0  0  0  0
  9 11  1  0  0  0  0
  9 12  1  0  0  0  0
  8 13  1  0  0  0  0
 13 14  1  0  0  0  0
 13 15  1  0  0  0  0
 13 16  1  0  0  0  0
  8 17  1  0  0  0  0
 17 18  1  0  0  0  0
 17 19  1  0  0  0  0
 17 20  1  0  0  0  0
  1 21  1  0  0  0  0
 22 23  4  0  0  0  0
 22 24  4  0  0  0  0
 24 25  1  0  0  0  0
 24 26  1  0  0  0  0
 22 27  4  0  0  0  0
 27 28  1  0  0  0  0
 27 29  1  0  0  0  0
 30 31  2  0  0  0  0
 30 32  4  0  0  0  0
 32 33  1  0  0  0  0
 32 34  1  0  0  0  0
 30 35  4  0  0  0  0
 35 36  1  0  0  0  0
 35 37  1  0  0  0  0
 38 39  2  0  0  0  0
 38 40  4  0  0  0  0
 40 41  1  0  0  0  0
 40 42  1  0  0  0  0
 38 43  4  0  0  0  0
 43 44  1  0  0  0  0
 43 45  1  0  0  0  0
 46 47  2  0  0  0  0
 46 48  1  0  0  0  0
 48 49  1  0  0  0  0
 48 50  1  0  0  0  0
 46 51  4  0  0  0  0
 51 52  1  0  0  0  0
 51 53  1  0  0  0  0
M  CHG  1   1   1
M  END
