 xtb: 6.6.1 (unknown-commit)
          01102415343D

 53 48  0     0  0            999 V2000
   -0.8925    0.9170   -2.6250 O   0  0  0  0  0  0  0  0  0  0  0  0
    0.4480    0.5997   -2.3540 C   0  0  0  0  0  0  0  0  0  0  0  0
    0.8901    0.2729   -3.2977 H   0  0  0  0  0  0  0  0  0  0  0  0
    0.9919    1.4945   -2.0284 H   0  0  0  0  0  0  0  0  0  0  0  0
    0.6207   -0.4490   -1.2486 C   0  0  0  0  0  0  0  0  0  0  0  0
   -0.0656   -0.2030   -0.4389 H   0  0  0  0  0  0  0  0  0  0  0  0
    1.6471   -0.4136   -0.8708 H   0  0  0  0  0  0  0  0  0  0  0  0
    0.3510   -1.8646   -1.6190 N   0  0  0  0  0  0  0  0  0  0  0  0
   -1.0512   -2.0299   -2.0339 C   0  0  0  0  0  0  0  0  0  0  0  0
   -1.6991   -1.8566   -1.1745 H   0  0  0  0  0  0  0  0  0  0  0  0
   -1.2146   -3.0414   -2.3999 H   0  0  0  0  0  0  0  0  0  0  0  0
   -1.2990   -1.3140   -2.8145 H   0  0  0  0  0  0  0  0  0  0  0  0
    0.5978   -2.6845   -0.4187 C   0  0  0  0  0  0  0  0  0  0  0  0
   -0.1050   -2.3998    0.3624 H   0  0  0  0  0  0  0  0  0  0  0  0
    1.6170   -2.5142   -0.0743 H   0  0  0  0  0  0  0  0  0  0  0  0
    0.4580   -3.7372   -0.6535 H   0  0  0  0  0  0  0  0  0  0  0  0
    1.2718   -2.3074   -2.6759 C   0  0  0  0  0  0  0  0  0  0  0  0
    2.2933   -2.0983   -2.3609 H   0  0  0  0  0  0  0  0  0  0  0  0
    1.0625   -1.7951   -3.6115 H   0  0  0  0  0  0  0  0  0  0  0  0
    1.1612   -3.3780   -2.8379 H   0  0  0  0  0  0  0  0  0  0  0  0
   -1.2201    1.5009   -1.9056 H   0  0  0  0  0  0  0  0  0  0  0  0
    3.9214   -0.8236    0.8773 C   0  0  0  0  0  0  0  0  0  0  0  0
    3.2942   -1.2178   -0.1022 O   0  0  0  0  0  0  0  0  0  0  0  0
    5.2431   -1.1009    1.0226 N   0  0  0  0  0  0  0  0  0  0  0  0
    5.7243   -1.5302    0.2526 H   0  0  0  0  0  0  0  0  0  0  0  0
    5.7960   -0.6808    1.7473 H   0  0  0  0  0  0  0  0  0  0  0  0
    3.3609   -0.0870    1.8593 N   0  0  0  0  0  0  0  0  0  0  0  0
    3.8743    0.0854    2.7054 H   0  0  0  0  0  0  0  0  0  0  0  0
    2.3480    0.0061    1.9193 H   0  0  0  0  0  0  0  0  0  0  0  0
   -2.2311    3.7587   -1.6171 C   0  0  0  0  0  0  0  0  0  0  0  0
   -1.6615    2.9150   -0.9197 O   0  0  0  0  0  0  0  0  0  0  0  0
   -2.7392    4.8885   -1.0825 N   0  0  0  0  0  0  0  0  0  0  0  0
   -2.6997    5.0190   -0.0874 H   0  0  0  0  0  0  0  0  0  0  0  0
   -3.2402    5.5625   -1.6316 H   0  0  0  0  0  0  0  0  0  0  0  0
   -2.3612    3.6059   -2.9481 N   0  0  0  0  0  0  0  0  0  0  0  0
   -2.8251    4.2850   -3.5227 H   0  0  0  0  0  0  0  0  0  0  0  0
   -1.9848    2.7769   -3.3796 H   0  0  0  0  0  0  0  0  0  0  0  0
   -1.8712   -2.2757    2.3670 C   0  0  0  0  0  0  0  0  0  0  0  0
   -1.9730   -1.8533    1.2104 O   0  0  0  0  0  0  0  0  0  0  0  0
   -2.7016   -3.2375    2.8344 N   0  0  0  0  0  0  0  0  0  0  0  0
   -3.4606   -3.5406    2.2512 H   0  0  0  0  0  0  0  0  0  0  0  0
   -2.6799   -3.5440    3.7894 H   0  0  0  0  0  0  0  0  0  0  0  0
   -0.9042   -1.8460    3.1923 N   0  0  0  0  0  0  0  0  0  0  0  0
   -0.8651   -2.1416    4.1502 H   0  0  0  0  0  0  0  0  0  0  0  0
   -0.3037   -1.0720    2.8920 H   0  0  0  0  0  0  0  0  0  0  0  0
   -0.1082    1.1486    1.5725 C   0  0  0  0  0  0  0  0  0  0  0  0
    0.5644    0.3299    2.2112 O   0  0  0  0  0  0  0  0  0  0  0  0
   -1.3616    0.8905    1.1609 N   0  0  0  0  0  0  0  0  0  0  0  0
   -1.7243   -0.0588    1.2301 H   0  0  0  0  0  0  0  0  0  0  0  0
   -1.8297    1.5566    0.5683 H   0  0  0  0  0  0  0  0  0  0  0  0
    0.3778    2.3621    1.2326 N   0  0  0  0  0  0  0  0  0  0  0  0
   -0.1570    2.9611    0.6263 H   0  0  0  0  0  0  0  0  0  0  0  0
    1.2944    2.6356    1.5345 H   0  0  0  0  0  0  0  0  0  0  0  0
  1  2  1  0  0  0  0
  2  3  1  0  0  0  0
  2  4  1  0  0  0  0
  2  5  1  0  0  0  0
  5  6  1  0  0  0  0
  5  7  1  0  0  0  0
  5  8  1  0  0  0  0
  8  9  1  0  0  0  0
  9 10  1  0  0  0  0
  9 11  1  0  0  0  0
  9 12  1  0  0  0  0
  8 13  1  0  0  0  0
 13 14  1  0  0  0  0
 13 15  1  0  0  0  0
 13 16  1  0  0  0  0
  8 17  1  0  0  0  0
 17 18  1  0  0  0  0
 17 19  1  0  0  0  0
 17 20  1  0  0  0  0
  1 21  1  0  0  0  0
 22 23  2  0  0  0  0
 22 24  1  0  0  0  0
 24 25  1  0  0  0  0
 24 26  1  0  0  0  0
 22 27  4  0  0  0  0
 27 28  1  0  0  0  0
 27 29  1  0  0  0  0
 30 31  4  0  0  0  0
 30 32  4  0  0  0  0
 32 33  1  0  0  0  0
 32 34  1  0  0  0  0
 30 35  4  0  0  0  0
 35 36  1  0  0  0  0
 35 37  1  0  0  0  0
 38 39  4  0  0  0  0
 38 40  4  0  0  0  0
 40 41  1  0  0  0  0
 40 42  1  0  0  0  0
 38 43  4  0  0  0  0
 43 44  1  0  0  0  0
 43 45  1  0  0  0  0
 46 47  4  0  0  0  0
 46 48  4  0  0  0  0
 48 49  1  0  0  0  0
 48 50  1  0  0  0  0
 46 51  4  0  0  0  0
 51 52  1  0  0  0  0
 51 53  1  0  0  0  0
M  CHG  1   1   1
M  END
