  53

 O         -2.2841496586       -0.2123106119        0.3710476860
 C         -1.2302381131       -0.1760471889       -0.5513063348
 H         -1.2734827136       -1.1115582701       -1.1134376877
 H         -1.3729744947        0.6474188105       -1.2646981600
 C          0.1529636239        0.0345891145        0.0735908968
 H          0.1519336511        0.9563195710        0.6632597072
 H          0.8792573310        0.1212863663       -0.7355863292
 N          0.6321088299       -1.0434032053        0.9825113207
 C         -0.1630227171       -1.0610092871        2.2213725865
 H         -0.0667467077       -0.0916089796        2.7096258363
 H          0.2040260884       -1.8407837095        2.8852688419
 H         -1.2089165661       -1.2442123348        1.9857150668
 C          2.0294994720       -0.7242677269        1.3218192451
 H          2.0570243708        0.2503111995        1.8070841504
 H          2.6230855355       -0.6966197266        0.4100114202
 H          2.4309593418       -1.4766332859        1.9970924120
 C          0.5748335430       -2.3607840340        0.3337205616
 H          1.0893132864       -3.0966488371        0.9481917032
 H          1.0495713645       -2.3224906007       -0.6450877365
 H         -0.4569695023       -2.6789613593        0.2095919755
 H         -2.3308990001        0.6642953797        0.8216759283
 C          3.6231303243       -1.6118701058       -2.0681099456
 O          2.7391510476       -0.7944836654       -1.7947672792
 N          4.9353389275       -1.2831532219       -1.9577627878
 H          5.1679669464       -0.3185008643       -1.7999796323
 H          5.6587024110       -1.8898775724       -2.2987901714
 N          3.3381632527       -2.8731951374       -2.4214757313
 H          4.0560903101       -3.5294510005       -2.6667582156
 H          2.3574771467       -3.1491734435       -2.5175746078
 C          0.5153569233        2.9377446796        3.0450879822
 O          0.7945672127        1.8556450421        2.5420573209
 N         -0.6635564754        3.5546755213        2.8269269853
 H         -1.3915323952        3.0654240585        2.3168039271
 H         -0.9067666801        4.3874821448        3.3311958413
 N          1.3833244311        3.5833990753        3.8679733939
 H          1.2222514694        4.5257196217        4.1733122370
 H          2.3132421991        3.2151337764        3.9585750159
 C          0.0809139128       -2.4191493136       -3.4653508150
 O          0.6014200513       -3.2593398600       -2.7370553834
 N          0.4467061846       -1.1181871135       -3.4264915457
 H          1.2775750167       -0.8837840426       -2.8835419245
 H          0.1346816458       -0.4695440644       -4.1257733821
 N         -0.9412640809       -2.7372249629       -4.2957986404
 H         -1.3249629882       -2.0834448696       -4.9528056087
 H         -1.2112783564       -3.7020921393       -4.3646240823
 C         -4.0275089425        2.3699254341        1.3076089917
 O         -2.8112842961        2.2205793694        1.4321770692
 N         -4.7986448560        1.4402518406        0.7098257291
 H         -4.3681739073        0.5735580059        0.4266655261
 H         -5.7982008358        1.5196315977        0.6739905074
 N         -4.6571604112        3.4768965874        1.7593423608
 H         -5.6353613475        3.6355772304        1.6021330216
 H         -4.1086579240        4.2263730780        2.1406160666
