 xtb: 6.6.1 (unknown-commit)
          01102418323D

 53 48  0     0  0            999 V2000
   -2.2841   -0.2123    0.3711 O   0  0  0  0  0  0  0  0  0  0  0  0
   -1.2302   -0.1760   -0.5513 C   0  0  0  0  0  0  0  0  0  0  0  0
   -1.2735   -1.1116   -1.1134 H   0  0  0  0  0  0  0  0  0  0  0  0
   -1.3730    0.6474   -1.2647 H   0  0  0  0  0  0  0  0  0  0  0  0
    0.1530    0.0346    0.0736 C   0  0  0  0  0  0  0  0  0  0  0  0
    0.1519    0.9563    0.6633 H   0  0  0  0  0  0  0  0  0  0  0  0
    0.8793    0.1213   -0.7356 H   0  0  0  0  0  0  0  0  0  0  0  0
    0.6321   -1.0434    0.9825 N   0  0  0  0  0  0  0  0  0  0  0  0
   -0.1630   -1.0610    2.2214 C   0  0  0  0  0  0  0  0  0  0  0  0
   -0.0667   -0.0916    2.7096 H   0  0  0  0  0  0  0  0  0  0  0  0
    0.2040   -1.8408    2.8853 H   0  0  0  0  0  0  0  0  0  0  0  0
   -1.2089   -1.2442    1.9857 H   0  0  0  0  0  0  0  0  0  0  0  0
    2.0295   -0.7243    1.3218 C   0  0  0  0  0  0  0  0  0  0  0  0
    2.0570    0.2503    1.8071 H   0  0  0  0  0  0  0  0  0  0  0  0
    2.6231   -0.6966    0.4100 H   0  0  0  0  0  0  0  0  0  0  0  0
    2.4310   -1.4766    1.9971 H   0  0  0  0  0  0  0  0  0  0  0  0
    0.5748   -2.3608    0.3337 C   0  0  0  0  0  0  0  0  0  0  0  0
    1.0893   -3.0967    0.9482 H   0  0  0  0  0  0  0  0  0  0  0  0
    1.0496   -2.3225   -0.6451 H   0  0  0  0  0  0  0  0  0  0  0  0
   -0.4570   -2.6790    0.2096 H   0  0  0  0  0  0  0  0  0  0  0  0
   -2.3309    0.6643    0.8217 H   0  0  0  0  0  0  0  0  0  0  0  0
    3.6231   -1.6119   -2.0681 C   0  0  0  0  0  0  0  0  0  0  0  0
    2.7391   -0.7945   -1.7948 O   0  0  0  0  0  0  0  0  0  0  0  0
    4.9353   -1.2832   -1.9578 N   0  0  0  0  0  0  0  0  0  0  0  0
    5.1680   -0.3185   -1.8000 H   0  0  0  0  0  0  0  0  0  0  0  0
    5.6587   -1.8899   -2.2988 H   0  0  0  0  0  0  0  0  0  0  0  0
    3.3381   -2.8732   -2.4215 N   0  0  0  0  0  0  0  0  0  0  0  0
    4.0561   -3.5295   -2.6668 H   0  0  0  0  0  0  0  0  0  0  0  0
    2.3575   -3.1492   -2.5176 H   0  0  0  0  0  0  0  0  0  0  0  0
    0.5154    2.9377    3.0451 C   0  0  0  0  0  0  0  0  0  0  0  0
    0.7946    1.8556    2.5421 O   0  0  0  0  0  0  0  0  0  0  0  0
   -0.6635    3.5547    2.8269 N   0  0  0  0  0  0  0  0  0  0  0  0
   -1.3915    3.0654    2.3168 H   0  0  0  0  0  0  0  0  0  0  0  0
   -0.9067    4.3875    3.3312 H   0  0  0  0  0  0  0  0  0  0  0  0
    1.3834    3.5834    3.8680 N   0  0  0  0  0  0  0  0  0  0  0  0
    1.2223    4.5257    4.1733 H   0  0  0  0  0  0  0  0  0  0  0  0
    2.3133    3.2151    3.9586 H   0  0  0  0  0  0  0  0  0  0  0  0
    0.0809   -2.4192   -3.4653 C   0  0  0  0  0  0  0  0  0  0  0  0
    0.6014   -3.2593   -2.7371 O   0  0  0  0  0  0  0  0  0  0  0  0
    0.4467   -1.1182   -3.4265 N   0  0  0  0  0  0  0  0  0  0  0  0
    1.2776   -0.8838   -2.8835 H   0  0  0  0  0  0  0  0  0  0  0  0
    0.1347   -0.4696   -4.1258 H   0  0  0  0  0  0  0  0  0  0  0  0
   -0.9413   -2.7372   -4.2958 N   0  0  0  0  0  0  0  0  0  0  0  0
   -1.3250   -2.0834   -4.9528 H   0  0  0  0  0  0  0  0  0  0  0  0
   -1.2113   -3.7021   -4.3646 H   0  0  0  0  0  0  0  0  0  0  0  0
   -4.0275    2.3699    1.3076 C   0  0  0  0  0  0  0  0  0  0  0  0
   -2.8113    2.2206    1.4322 O   0  0  0  0  0  0  0  0  0  0  0  0
   -4.7986    1.4403    0.7098 N   0  0  0  0  0  0  0  0  0  0  0  0
   -4.3682    0.5736    0.4267 H   0  0  0  0  0  0  0  0  0  0  0  0
   -5.7982    1.5197    0.6740 H   0  0  0  0  0  0  0  0  0  0  0  0
   -4.6571    3.4769    1.7594 N   0  0  0  0  0  0  0  0  0  0  0  0
   -5.6353    3.6356    1.6021 H   0  0  0  0  0  0  0  0  0  0  0  0
   -4.1086    4.2264    2.1406 H   0  0  0  0  0  0  0  0  0  0  0  0
  1  2  1  0  0  0  0
  2  3  1  0  0  0  0
  2  4  1  0  0  0  0
  2  5  1  0  0  0  0
  5  6  1  0  0  0  0
  5  7  1  0  0  0  0
  5  8  1  0  0  0  0
  8  9  1  0  0  0  0
  9 10  1  0  0  0  0
  9 11  1  0  0  0  0
  9 12  1  0  0  0  0
  8 13  1  0  0  0  0
 13 14  1  0  0  0  0
 13 15  1  0  0  0  0
 13 16  1  0  0  0  0
  8 17  1  0  0  0  0
 17 18  1  0  0  0  0
 17 19  1  0  0  0  0
 17 20  1  0  0  0  0
  1 21  1  0  0  0  0
 22 23  4  0  0  0  0
 22 24  1  0  0  0  0
 24 25  1  0  0  0  0
 24 26  1  0  0  0  0
 22 27  4  0  0  0  0
 27 28  1  0  0  0  0
 27 29  1  0  0  0  0
 30 31  2  0  0  0  0
 30 32  4  0  0  0  0
 32 33  1  0  0  0  0
 32 34  1  0  0  0  0
 30 35  1  0  0  0  0
 35 36  1  0  0  0  0
 35 37  1  0  0  0  0
 38 39  2  0  0  0  0
 38 40  4  0  0  0  0
 40 41  1  0  0  0  0
 40 42  1  0  0  0  0
 38 43  4  0  0  0  0
 43 44  1  0  0  0  0
 43 45  1  0  0  0  0
 46 47  4  0  0  0  0
 46 48  4  0  0  0  0
 48 49  1  0  0  0  0
 48 50  1  0  0  0  0
 46 51  4  0  0  0  0
 51 52  1  0  0  0  0
 51 53  1  0  0  0  0
M  CHG  1   1   1
M  END
