  21
 
 O          2.1287447915        0.5754376807        0.3671259817
 C          1.6704082685       -0.7169870249        0.0257045547
 H          1.7377177465       -0.8357720232       -1.0626099237
 H          2.3590422148       -1.4547238962        0.4597180312
 C          0.2472174455       -0.9825436309        0.4987996361
 H          0.2134514803       -0.9493146670        1.5900178953
 H         -0.0631036212       -1.9915292997        0.2127601980
 N         -0.7894952075        0.0031644744       -0.0224619051
 C         -0.7115427727        0.1212066176       -1.5200555233
 H         -1.5177984066        0.7495615038       -1.8922097277
 H         -0.7940909426       -0.8590718865       -1.9842071181
 H          0.2320085078        0.5719376474       -1.8176800517
 C         -0.5989785093        1.3629998264        0.6076870812
 H          0.3767471371        1.7629054396        0.3457011582
 H         -0.6621013023        1.2909877091        1.6909230985
 H         -1.3628108290        2.0546982035        0.2596583915
 C         -2.1551970214       -0.5171467946        0.3464792093
 H         -2.9275292685        0.1676268942        0.0029842170
 H         -2.2430355277       -0.6218309815        1.4257231665
 H         -2.3301164873       -1.4886651113       -0.1107009586
 H          3.0537691012        0.7144352094        0.0550799734
          21
         -3.00235579
 O          2.2326025250        0.5268915995        0.0530646233
 C          1.6468024927       -0.7537119505       -0.0101231477
 H          2.3569825640       -1.4308815637       -0.5042284083
 H          1.5581828625       -1.1171946664        1.0193841399
 C          0.2938194838       -0.7715276176       -0.7077727376
 H         -0.0606737416       -1.7996869713       -0.8198328119
 H          0.3981239795       -0.3717617891       -1.7185356274
 N         -0.8021115913        0.0231927562        0.0001528705
 C         -1.0339946852       -0.5131429426        1.3945445024
 H         -0.1693173080       -0.3271104247        2.0264491425
 H         -1.2219568276       -1.5839792279        1.3632625675
 H         -1.8939925361       -0.0247062144        1.8473178068
 C         -2.0823435030       -0.1224417029       -0.7974371610
 H         -2.8886940762        0.4347693378       -0.3259053271
 H         -2.3752781240       -1.1682308225       -0.8575192474
 H         -1.9454562102        0.2576877214       -1.8073195458
 C         -0.4466492736        1.4889141432        0.0781493768
 H          0.4546070689        1.6246346350        0.6704935272
 H         -1.2529441103        2.0507411973        0.5442250200
 H         -0.2726649555        1.8905539623       -0.9173707861
 H          2.3531324430        0.8860383436       -0.8567676158
