  53

 O          2.9452040019       -0.6149345614       -0.6216285948
 C          2.6369472226        0.5990438402       -1.2351259470
 H          3.4703625910        1.2779378193       -1.0356445261
 H          2.5611080987        0.4779641572       -2.3240547861
 C          1.2996429704        1.2074371072       -0.7778984507
 H          0.4928807736        0.4978617314       -0.9836782756
 H          1.1300870760        2.1161233545       -1.3584573349
 N          1.2092600141        1.5565524161        0.6656843446
 C          1.1283355825        0.3347647133        1.4853885919
 H          0.2486978687       -0.2308036314        1.1817430414
 H          1.0445848769        0.6248418265        2.5308276491
 H          2.0208987972       -0.2661991508        1.3287014589
 C         -0.0291008377        2.3242223414        0.8803638838
 H         -0.8723502256        1.7197980955        0.5480713699
 H         -0.0006486436        3.2554756624        0.3187273705
 H         -0.1204989846        2.5438912140        1.9429884286
 C          2.3531034158        2.3614699932        1.1191168537
 H          2.4710805480        3.2397626193        0.4873892616
 H          3.2638428701        1.7688433181        1.0923824161
 H          2.1641130345        2.6734159387        2.1461187349
 H          2.2933704746       -1.2728693707       -0.9583807912
 C          0.1930742745       -2.7958394340       -0.9534933595
 O          0.9161215292       -2.0493255193       -1.6220036391
 N          0.5884973440       -3.2172801128        0.2779690464
 H          1.5516700037       -3.0763408114        0.5317542899
 H          0.0980679349       -3.9608881023        0.7421721512
 N         -0.9958996625       -3.2175729376       -1.3943574138
 H         -1.6068778558       -3.7460949726       -0.7987050751
 H         -1.3954593584       -2.7735800432       -2.2274419075
 C          0.9725637292        2.8514942579        5.0611048399
 O          0.9216661424        2.4935199266        3.8923929136
 N          0.0185389584        3.6346955192        5.6196963337
 H         -0.6957580696        4.0175052323        5.0267704231
 H          0.1184316174        4.0160056316        6.5425699234
 N          1.9864686597        2.4888674784        5.8830546304
 H          1.9792427030        2.7021743800        6.8635171795
 H          2.6663607771        1.8299038514        5.5484678093
 C         -1.2437970431       -1.4160240218       -4.4235318114
 O         -2.0380317143       -1.8218005070       -3.5708631877
 N          0.0534037050       -1.2061328991       -4.1476971221
 H          0.4119510511       -1.5014143864       -3.2364584419
 H          0.7085057410       -0.9882295158       -4.8760365947
 N         -1.6653530113       -1.1133984044       -5.6741260525
 H         -1.0306460769       -0.8564942447       -6.4073220867
 H         -2.6233781296       -1.2978291293       -5.9120062461
 C         -2.7393247292       -0.5078330481       -0.1291887881
 O         -1.5616960083       -0.1706866523       -0.0853635993
 N         -3.5019790044       -0.5489823635        1.0044342688
 H         -3.1264346343       -0.1321714530        1.8381895048
 H         -4.5008206652       -0.6383319272        0.9490672381
 N         -3.3672141973       -0.8595485189       -1.2650308282
 H         -4.2997205027       -1.2313617370       -1.2385017862
 H         -2.8280965601       -1.0391232958       -2.1065525323
