 xtb: 6.6.1 (unknown-commit)
          01102418333D

 53 48  0     0  0            999 V2000
    2.9452   -0.6150   -0.6216 O   0  0  0  0  0  0  0  0  0  0  0  0
    2.6369    0.5990   -1.2351 C   0  0  0  0  0  0  0  0  0  0  0  0
    3.4704    1.2779   -1.0357 H   0  0  0  0  0  0  0  0  0  0  0  0
    2.5611    0.4779   -2.3241 H   0  0  0  0  0  0  0  0  0  0  0  0
    1.2996    1.2074   -0.7779 C   0  0  0  0  0  0  0  0  0  0  0  0
    0.4929    0.4979   -0.9837 H   0  0  0  0  0  0  0  0  0  0  0  0
    1.1301    2.1161   -1.3585 H   0  0  0  0  0  0  0  0  0  0  0  0
    1.2093    1.5565    0.6657 N   0  0  0  0  0  0  0  0  0  0  0  0
    1.1283    0.3348    1.4854 C   0  0  0  0  0  0  0  0  0  0  0  0
    0.2487   -0.2308    1.1817 H   0  0  0  0  0  0  0  0  0  0  0  0
    1.0446    0.6248    2.5308 H   0  0  0  0  0  0  0  0  0  0  0  0
    2.0209   -0.2662    1.3287 H   0  0  0  0  0  0  0  0  0  0  0  0
   -0.0291    2.3242    0.8804 C   0  0  0  0  0  0  0  0  0  0  0  0
   -0.8723    1.7198    0.5481 H   0  0  0  0  0  0  0  0  0  0  0  0
   -0.0006    3.2555    0.3187 H   0  0  0  0  0  0  0  0  0  0  0  0
   -0.1205    2.5439    1.9430 H   0  0  0  0  0  0  0  0  0  0  0  0
    2.3531    2.3615    1.1191 C   0  0  0  0  0  0  0  0  0  0  0  0
    2.4711    3.2398    0.4874 H   0  0  0  0  0  0  0  0  0  0  0  0
    3.2639    1.7688    1.0924 H   0  0  0  0  0  0  0  0  0  0  0  0
    2.1641    2.6734    2.1461 H   0  0  0  0  0  0  0  0  0  0  0  0
    2.2934   -1.2729   -0.9584 H   0  0  0  0  0  0  0  0  0  0  0  0
    0.1931   -2.7958   -0.9535 C   0  0  0  0  0  0  0  0  0  0  0  0
    0.9161   -2.0493   -1.6220 O   0  0  0  0  0  0  0  0  0  0  0  0
    0.5885   -3.2173    0.2780 N   0  0  0  0  0  0  0  0  0  0  0  0
    1.5517   -3.0763    0.5318 H   0  0  0  0  0  0  0  0  0  0  0  0
    0.0980   -3.9609    0.7422 H   0  0  0  0  0  0  0  0  0  0  0  0
   -0.9959   -3.2176   -1.3943 N   0  0  0  0  0  0  0  0  0  0  0  0
   -1.6069   -3.7461   -0.7987 H   0  0  0  0  0  0  0  0  0  0  0  0
   -1.3955   -2.7736   -2.2274 H   0  0  0  0  0  0  0  0  0  0  0  0
    0.9726    2.8515    5.0611 C   0  0  0  0  0  0  0  0  0  0  0  0
    0.9217    2.4935    3.8924 O   0  0  0  0  0  0  0  0  0  0  0  0
    0.0186    3.6347    5.6197 N   0  0  0  0  0  0  0  0  0  0  0  0
   -0.6957    4.0175    5.0268 H   0  0  0  0  0  0  0  0  0  0  0  0
    0.1185    4.0160    6.5426 H   0  0  0  0  0  0  0  0  0  0  0  0
    1.9865    2.4889    5.8830 N   0  0  0  0  0  0  0  0  0  0  0  0
    1.9793    2.7022    6.8635 H   0  0  0  0  0  0  0  0  0  0  0  0
    2.6664    1.8299    5.5485 H   0  0  0  0  0  0  0  0  0  0  0  0
   -1.2438   -1.4160   -4.4235 C   0  0  0  0  0  0  0  0  0  0  0  0
   -2.0381   -1.8218   -3.5709 O   0  0  0  0  0  0  0  0  0  0  0  0
    0.0534   -1.2061   -4.1477 N   0  0  0  0  0  0  0  0  0  0  0  0
    0.4119   -1.5014   -3.2365 H   0  0  0  0  0  0  0  0  0  0  0  0
    0.7085   -0.9882   -4.8760 H   0  0  0  0  0  0  0  0  0  0  0  0
   -1.6654   -1.1134   -5.6741 N   0  0  0  0  0  0  0  0  0  0  0  0
   -1.0307   -0.8565   -6.4073 H   0  0  0  0  0  0  0  0  0  0  0  0
   -2.6234   -1.2978   -5.9120 H   0  0  0  0  0  0  0  0  0  0  0  0
   -2.7393   -0.5078   -0.1292 C   0  0  0  0  0  0  0  0  0  0  0  0
   -1.5617   -0.1707   -0.0854 O   0  0  0  0  0  0  0  0  0  0  0  0
   -3.5020   -0.5490    1.0044 N   0  0  0  0  0  0  0  0  0  0  0  0
   -3.1264   -0.1322    1.8382 H   0  0  0  0  0  0  0  0  0  0  0  0
   -4.5008   -0.6383    0.9491 H   0  0  0  0  0  0  0  0  0  0  0  0
   -3.3672   -0.8595   -1.2650 N   0  0  0  0  0  0  0  0  0  0  0  0
   -4.2997   -1.2313   -1.2385 H   0  0  0  0  0  0  0  0  0  0  0  0
   -2.8281   -1.0391   -2.1065 H   0  0  0  0  0  0  0  0  0  0  0  0
  1  2  1  0  0  0  0
  2  3  1  0  0  0  0
  2  4  1  0  0  0  0
  2  5  1  0  0  0  0
  5  6  1  0  0  0  0
  5  7  1  0  0  0  0
  5  8  1  0  0  0  0
  8  9  1  0  0  0  0
  9 10  1  0  0  0  0
  9 11  1  0  0  0  0
  9 12  1  0  0  0  0
  8 13  1  0  0  0  0
 13 14  1  0  0  0  0
 13 15  1  0  0  0  0
 13 16  1  0  0  0  0
  8 17  1  0  0  0  0
 17 18  1  0  0  0  0
 17 19  1  0  0  0  0
 17 20  1  0  0  0  0
  1 21  1  0  0  0  0
 22 23  4  0  0  0  0
 22 24  1  0  0  0  0
 24 25  1  0  0  0  0
 24 26  1  0  0  0  0
 22 27  4  0  0  0  0
 27 28  1  0  0  0  0
 27 29  1  0  0  0  0
 30 31  2  0  0  0  0
 30 32  4  0  0  0  0
 32 33  1  0  0  0  0
 32 34  1  0  0  0  0
 30 35  4  0  0  0  0
 35 36  1  0  0  0  0
 35 37  1  0  0  0  0
 38 39  4  0  0  0  0
 38 40  4  0  0  0  0
 40 41  1  0  0  0  0
 40 42  1  0  0  0  0
 38 43  4  0  0  0  0
 43 44  1  0  0  0  0
 43 45  1  0  0  0  0
 46 47  2  0  0  0  0
 46 48  1  0  0  0  0
 48 49  1  0  0  0  0
 48 50  1  0  0  0  0
 46 51  4  0  0  0  0
 51 52  1  0  0  0  0
 51 53  1  0  0  0  0
M  CHG  1   1   1
M  END
