  53

 O         -0.4615104124       -2.1373756107        1.5743798948
 C         -1.2609862806       -3.0549753197        0.8966630153
 H         -1.8076276604       -3.6238272420        1.6548677015
 H         -2.0038845374       -2.5420909250        0.2699483833
 C         -0.4860219571       -3.9888661319       -0.0483470594
 H          0.0155004908       -3.3954523512       -0.8196850079
 H         -1.2072505383       -4.6550363200       -0.5247478630
 N          0.5722874465       -4.8267629734        0.5862295660
 C          1.7173344162       -3.9786382916        0.9661412162
 H          2.1100902014       -3.5085702012        0.0649000603
 H          2.4914886976       -4.5860332065        1.4295050550
 H          1.3860362063       -3.2077353698        1.6590562842
 C          1.0329812416       -5.8037819772       -0.4162588741
 H          1.8549797620       -6.3912267291       -0.0122371208
 H          1.3787897574       -5.2607913720       -1.2961334203
 H          0.2223536425       -6.4738499728       -0.6951605697
 C          0.0667051587       -5.5334376194        1.7722105171
 H         -0.1525567073       -4.8213942945        2.5647061888
 H          0.8196048805       -6.2322994716        2.1328704575
 H         -0.8371983814       -6.0876224692        1.5242519597
 H         -0.1100311441       -1.4917013530        0.9003133923
 C         -0.0985902949        0.7467614889       -0.0349332478
 O          0.2624205232       -0.4179761073       -0.2965148870
 N         -0.5333936205        1.0842757849        1.1876976444
 H         -0.6545630476        0.3493693069        1.8646705348
 H         -0.9900280412        1.9713950563        1.3763990500
 N         -0.0720724176        1.7110603964       -0.9700941594
 H         -0.1719584817        2.6958219192       -0.7415928901
 H          0.3320621410        1.4891193065       -1.8626482781
 C          0.6618168921        4.9865483521        0.3771229474
 O          0.0181909860        4.5022930186       -0.5591524934
 N          1.7845065992        5.7093382316        0.1477433747
 H          2.0162165245        5.9337355427       -0.8034702489
 H          2.2571700710        6.2034234015        0.8822403452
 N          0.3077830313        4.7935121928        1.6555472640
 H          0.8243362715        5.1935169862        2.4165017310
 H         -0.5379991681        4.2560649941        1.8530821908
 C          2.1342218549       -2.4188355607       -2.7678835118
 O          1.7718660011       -3.3434466204       -2.0445467748
 N          2.9834030073       -2.6292604662       -3.8081239294
 H          3.2042080944       -3.5773521697       -4.0554094629
 H          3.1737760165       -1.9142633538       -4.4863053742
 N          1.7273773793       -1.1513455000       -2.5756563969
 H          2.1316837625       -0.4039768675       -3.1102244369
 H          1.1879245845       -0.9194176101       -1.7384390289
 C         -2.9901364825        3.7617858272        1.1127637948
 O         -2.0851508009        3.3562050215        1.8480300708
 N         -2.7389766227        4.3088223506       -0.0856566432
 H         -1.7675783848        4.4112229864       -0.3824574243
 H         -3.4729295839        4.6444769247       -0.6810780405
 N         -4.2893075787        3.6359797043        1.4758691511
 H         -5.0312094587        4.0624082743        0.9516658003
 H         -4.4891391930        3.3082543209        2.4041769465
