  53

 O         -0.0251448508        1.6524439592        2.2514425994
 C         -0.5659825224        2.6139004454        1.3964779442
 H         -1.2721731052        3.2010488286        1.9906223234
 H          0.2141132347        3.2996703755        1.0381523813
 C         -1.2447122823        2.0429190190        0.1399785920
 H         -0.5191376521        1.4703530385       -0.4467839731
 H         -1.5926744307        2.8879358013       -0.4574540689
 N         -2.4004351420        1.1362553082        0.3745827840
 C         -1.9394391701       -0.1559903412        0.9115808639
 H         -1.2621839245       -0.6092218912        0.1898395331
 H         -2.8056681642       -0.7975061145        1.0599020204
 H         -1.4185523705        0.0023092944        1.8528200202
 C         -3.0527420212        0.8750105812       -0.9205166402
 H         -2.3213863588        0.4438423262       -1.6021879829
 H         -3.4452448709        1.7992073911       -1.3393404168
 H         -3.8697458091        0.1736757260       -0.7592030654
 C         -3.3866016942        1.7143141601        1.2987083315
 H         -3.6983950147        2.6976063620        0.9515480660
 H         -2.9619571399        1.7978788801        2.2958721786
 H         -4.2495948169        1.0503252520        1.3367222161
 H          0.7524561664        1.2437450479        1.7958693569
 C          5.2692124173       -0.1370616995       -2.0248901664
 O          4.7429285145       -1.0017961845       -1.3306047459
 N          6.5996981547       -0.1326579277       -2.2727335231
 H          7.1370584052       -0.9256216307       -1.9690238191
 H          7.0151233054        0.4922491404       -2.9393680633
 N          4.5517598561        0.8664067648       -2.5794839020
 H          4.9894241072        1.6293247677       -3.0621398921
 H          3.5754503729        0.9357541329       -2.3353157027
 C          2.9820587601        0.1332055386        1.8388764661
 O          2.1446140369        0.6180605792        1.0689473395
 N          4.0529323077       -0.5441949607        1.4032626383
 H          4.1961537485       -0.7192025607        0.4121063387
 H          4.6985833443       -0.9618915077        2.0480915175
 N          2.8430871879        0.2677702633        3.1777052296
 H          3.5343744679       -0.0660125966        3.8234730519
 H          2.0717505228        0.8069328486        3.5320755429
 C          0.7750709903       -0.7474482183       -2.1080836087
 O         -0.2899635134       -0.2401176259       -1.7694140218
 N          0.8415798991       -1.6585857172       -3.1125986050
 H          0.0155352031       -1.8478355911       -3.6505551716
 H          1.7205894729       -2.0151231892       -3.4396874679
 N          1.9542515870       -0.4098715723       -1.5401652695
 H          2.7660235181       -1.0036076582       -1.6579497620
 H          1.9182723844        0.0651351193       -0.6385928753
 C         -6.0158927070       -1.6347490129        0.9197933190
 O         -5.0793092890       -0.8622012389        0.7740614191
 N         -6.1080684953       -2.4650617668        1.9868312736
 H         -5.4366878962       -2.3708318321        2.7275452446
 H         -6.9259457662       -3.0201267697        2.1595065150
 N         -7.0290841078       -1.7192577790        0.0245386237
 H         -7.7461501892       -2.4174814858        0.0949177897
 H         -6.9629708477       -1.1934221885       -0.8282508653
