  53

 O         -0.3714035779       -3.8742955192       -4.6409565608
 C         -1.3817683592       -3.2029725029       -3.9350569849
 H         -1.5030823532       -2.2360732808       -4.4263776113
 H         -2.3379093224       -3.7338400200       -4.0114204262
 C         -1.0877949592       -3.0186794905       -2.4378125171
 H         -0.9272739693       -3.9982145213       -1.9796599072
 H         -1.9628108868       -2.5488620204       -1.9800983366
 N          0.0814259219       -2.1649691869       -2.1008406668
 C          0.1135630668       -1.9965103987       -0.6365459785
 H         -0.7999688380       -1.5049030190       -0.3095422671
 H          0.9714344540       -1.3689923217       -0.3902072267
 H          0.2073912947       -2.9620687871       -0.1447571540
 C         -0.0454708075       -0.8317372691       -2.7122854018
 H          0.0938722036       -0.8946387935       -3.7879817516
 H          0.7290251945       -0.1907017416       -2.2912817615
 H         -1.0270477326       -0.4258077675       -2.4819115434
 C          1.3574042334       -2.7609892749       -2.5293548167
 H          1.3579413565       -2.9157604414       -3.6061426265
 H          1.5109044527       -3.7171858110       -2.0326124184
 H          2.1622793640       -2.0815237520       -2.2523723175
 H         -0.4273741379       -4.8242180795       -4.4927450811
 C          2.6877455809        0.7843600279       -0.0682326379
 O          2.3590657862       -0.0185949755       -0.9388565627
 N          3.2482025770        1.9844550846       -0.3739776455
 H          3.6338896851        2.1010522645       -1.2951660175
 H          3.6318312593        2.5471799554        0.3660744228
 N          2.5112244233        0.5545487812        1.2507931706
 H          2.5603638581        1.3409830095        1.8918162935
 H          1.8940360230       -0.1931727613        1.5196518898
 C         -0.4299731867        1.7796560540        0.5629607243
 O         -0.5813817814        0.9841509264        1.5036631951
 N         -1.0523172693        1.5810050118       -0.6167150992
 H         -1.7162715458        0.8160909633       -0.7032974517
 H         -1.0246447675        2.2795114342       -1.3363511985
 N          0.3433996126        2.8717203831        0.6737282900
 H          0.5469944657        3.4312643885       -0.1346740112
 H          0.9761741169        2.9557242792        1.4707721831
 C         -3.4516238137       -0.7987275886        0.2226516965
 O         -2.7523871095       -0.7272092686       -0.7942336352
 N         -4.6889525867       -1.3518092837        0.1796970855
 H         -5.0864338714       -1.5596135652       -0.7192705956
 H         -5.3116170673       -1.3061503293        0.9658377631
 N         -3.0048044586       -0.3968375494        1.4207948162
 H         -3.5950296259       -0.4268506825        2.2316592998
 H         -2.0885582972        0.0579629446        1.4986362144
 C          1.5541267210        2.6302516086        3.9244600245
 O          2.1293945421        2.8603940994        2.8556570494
 N          0.4909776759        1.8103374871        3.9922304956
 H          0.0819983270        1.4575398280        3.1243639128
 H         -0.0175212393        1.6894821696        4.8486770574
 N          1.9854970072        3.1817315517        5.0796339800
 H          1.5623779809        2.9794151408        5.9663421830
 H          2.8058287028        3.7605419478        5.0567767431
