 xtb: 6.6.1 (unknown-commit)
          01102415363D

 53 48  0     0  0            999 V2000
   -0.3714   -3.8743   -4.6409 O   0  0  0  0  0  0  0  0  0  0  0  0
   -1.3818   -3.2030   -3.9350 C   0  0  0  0  0  0  0  0  0  0  0  0
   -1.5031   -2.2361   -4.4264 H   0  0  0  0  0  0  0  0  0  0  0  0
   -2.3379   -3.7338   -4.0114 H   0  0  0  0  0  0  0  0  0  0  0  0
   -1.0878   -3.0187   -2.4378 C   0  0  0  0  0  0  0  0  0  0  0  0
   -0.9273   -3.9982   -1.9796 H   0  0  0  0  0  0  0  0  0  0  0  0
   -1.9628   -2.5489   -1.9801 H   0  0  0  0  0  0  0  0  0  0  0  0
    0.0814   -2.1650   -2.1008 N   0  0  0  0  0  0  0  0  0  0  0  0
    0.1136   -1.9965   -0.6365 C   0  0  0  0  0  0  0  0  0  0  0  0
   -0.8000   -1.5049   -0.3095 H   0  0  0  0  0  0  0  0  0  0  0  0
    0.9714   -1.3690   -0.3902 H   0  0  0  0  0  0  0  0  0  0  0  0
    0.2074   -2.9621   -0.1448 H   0  0  0  0  0  0  0  0  0  0  0  0
   -0.0455   -0.8317   -2.7123 C   0  0  0  0  0  0  0  0  0  0  0  0
    0.0939   -0.8946   -3.7880 H   0  0  0  0  0  0  0  0  0  0  0  0
    0.7290   -0.1907   -2.2913 H   0  0  0  0  0  0  0  0  0  0  0  0
   -1.0271   -0.4258   -2.4819 H   0  0  0  0  0  0  0  0  0  0  0  0
    1.3574   -2.7610   -2.5294 C   0  0  0  0  0  0  0  0  0  0  0  0
    1.3579   -2.9158   -3.6061 H   0  0  0  0  0  0  0  0  0  0  0  0
    1.5109   -3.7172   -2.0326 H   0  0  0  0  0  0  0  0  0  0  0  0
    2.1623   -2.0815   -2.2524 H   0  0  0  0  0  0  0  0  0  0  0  0
   -0.4274   -4.8242   -4.4927 H   0  0  0  0  0  0  0  0  0  0  0  0
    2.6877    0.7843   -0.0682 C   0  0  0  0  0  0  0  0  0  0  0  0
    2.3591   -0.0186   -0.9389 O   0  0  0  0  0  0  0  0  0  0  0  0
    3.2482    1.9844   -0.3740 N   0  0  0  0  0  0  0  0  0  0  0  0
    3.6339    2.1010   -1.2952 H   0  0  0  0  0  0  0  0  0  0  0  0
    3.6318    2.5472    0.3661 H   0  0  0  0  0  0  0  0  0  0  0  0
    2.5112    0.5545    1.2508 N   0  0  0  0  0  0  0  0  0  0  0  0
    2.5604    1.3410    1.8918 H   0  0  0  0  0  0  0  0  0  0  0  0
    1.8940   -0.1932    1.5196 H   0  0  0  0  0  0  0  0  0  0  0  0
   -0.4300    1.7797    0.5630 C   0  0  0  0  0  0  0  0  0  0  0  0
   -0.5814    0.9842    1.5037 O   0  0  0  0  0  0  0  0  0  0  0  0
   -1.0523    1.5810   -0.6167 N   0  0  0  0  0  0  0  0  0  0  0  0
   -1.7163    0.8161   -0.7033 H   0  0  0  0  0  0  0  0  0  0  0  0
   -1.0246    2.2795   -1.3364 H   0  0  0  0  0  0  0  0  0  0  0  0
    0.3434    2.8717    0.6737 N   0  0  0  0  0  0  0  0  0  0  0  0
    0.5470    3.4313   -0.1347 H   0  0  0  0  0  0  0  0  0  0  0  0
    0.9762    2.9557    1.4708 H   0  0  0  0  0  0  0  0  0  0  0  0
   -3.4516   -0.7987    0.2227 C   0  0  0  0  0  0  0  0  0  0  0  0
   -2.7524   -0.7272   -0.7942 O   0  0  0  0  0  0  0  0  0  0  0  0
   -4.6890   -1.3518    0.1797 N   0  0  0  0  0  0  0  0  0  0  0  0
   -5.0864   -1.5596   -0.7193 H   0  0  0  0  0  0  0  0  0  0  0  0
   -5.3116   -1.3061    0.9659 H   0  0  0  0  0  0  0  0  0  0  0  0
   -3.0048   -0.3968    1.4208 N   0  0  0  0  0  0  0  0  0  0  0  0
   -3.5950   -0.4268    2.2317 H   0  0  0  0  0  0  0  0  0  0  0  0
   -2.0886    0.0580    1.4986 H   0  0  0  0  0  0  0  0  0  0  0  0
    1.5542    2.6303    3.9245 C   0  0  0  0  0  0  0  0  0  0  0  0
    2.1294    2.8604    2.8556 O   0  0  0  0  0  0  0  0  0  0  0  0
    0.4910    1.8103    3.9922 N   0  0  0  0  0  0  0  0  0  0  0  0
    0.0820    1.4575    3.1244 H   0  0  0  0  0  0  0  0  0  0  0  0
   -0.0175    1.6895    4.8487 H   0  0  0  0  0  0  0  0  0  0  0  0
    1.9855    3.1817    5.0796 N   0  0  0  0  0  0  0  0  0  0  0  0
    1.5624    2.9794    5.9663 H   0  0  0  0  0  0  0  0  0  0  0  0
    2.8059    3.7605    5.0568 H   0  0  0  0  0  0  0  0  0  0  0  0
  1  2  1  0  0  0  0
  2  3  1  0  0  0  0
  2  4  1  0  0  0  0
  2  5  1  0  0  0  0
  5  6  1  0  0  0  0
  5  7  1  0  0  0  0
  5  8  1  0  0  0  0
  8  9  1  0  0  0  0
  9 10  1  0  0  0  0
  9 11  1  0  0  0  0
  9 12  1  0  0  0  0
  8 13  1  0  0  0  0
 13 14  1  0  0  0  0
 13 15  1  0  0  0  0
 13 16  1  0  0  0  0
  8 17  1  0  0  0  0
 17 18  1  0  0  0  0
 17 19  1  0  0  0  0
 17 20  1  0  0  0  0
  1 21  1  0  0  0  0
 22 23  2  0  0  0  0
 22 24  1  0  0  0  0
 24 25  1  0  0  0  0
 24 26  1  0  0  0  0
 22 27  4  0  0  0  0
 27 28  1  0  0  0  0
 27 29  1  0  0  0  0
 30 31  4  0  0  0  0
 30 32  4  0  0  0  0
 32 33  1  0  0  0  0
 32 34  1  0  0  0  0
 30 35  4  0  0  0  0
 35 36  1  0  0  0  0
 35 37  1  0  0  0  0
 38 39  4  0  0  0  0
 38 40  4  0  0  0  0
 40 41  1  0  0  0  0
 40 42  1  0  0  0  0
 38 43  4  0  0  0  0
 43 44  1  0  0  0  0
 43 45  1  0  0  0  0
 46 47  4  0  0  0  0
 46 48  4  0  0  0  0
 48 49  1  0  0  0  0
 48 50  1  0  0  0  0
 46 51  4  0  0  0  0
 51 52  1  0  0  0  0
 51 53  1  0  0  0  0
M  CHG  1   1   1
M  END
