  53

 O         -1.9765259572       -0.4250094180       -1.3250314077
 C         -1.1407228917       -1.5452823176       -1.2593657199
 H         -1.7871498817       -2.4120257868       -1.4131638371
 H         -0.3995037391       -1.5164532369       -2.0698923652
 C         -0.3522300098       -1.6628232601        0.0526647417
 H          0.0606643032       -0.6796899110        0.2946454511
 H          0.4754678659       -2.3576127895       -0.1000716950
 N         -1.1177706507       -2.1255098334        1.2432109993
 C         -2.2581316326       -1.2286873415        1.4900799842
 H         -1.9096862876       -0.2006611577        1.5653029334
 H         -2.7528632995       -1.5119532059        2.4164938761
 H         -2.9702090162       -1.3205172302        0.6702128983
 C         -0.2060717912       -2.0951611466        2.4013792195
 H          0.2396907016       -1.1028306384        2.5033477855
 H          0.5914836319       -2.8232089141        2.2650790539
 H         -0.7519060289       -2.3383839629        3.3102303609
 C         -1.6183857683       -3.4997944630        1.0638438743
 H         -2.4405769559       -3.5119428528        0.3493360866
 H         -1.9945136991       -3.8736836619        2.0138655904
 H         -0.8175162238       -4.1510552964        0.7207649092
 H         -1.4439509850        0.3921369322       -1.2130578568
 C          6.0002513282        2.1228285890       -0.8090573061
 O          4.9605618483        1.7063185572       -0.3176427862
 N          7.2181462095        1.7840984398       -0.3194664349
 H          7.2672310149        1.0766089104        0.3918226472
 H          8.0664470713        2.0284964550       -0.7968657238
 N          6.0100590949        2.9557978028       -1.8776817841
 H          6.8540788451        3.3887275155       -2.2052589874
 H          5.1340576786        3.3237644597       -2.2032417411
 C         -1.1686397141        2.5108807271        0.1680933504
 O         -0.6211716829        1.8139817353       -0.6925893259
 N         -2.0014653624        3.5170880631       -0.1767195112
 H         -2.1826089826        3.6785379210       -1.1511888941
 H         -2.4784988920        4.0802355345        0.5027950387
 N         -1.0066703848        2.2629193558        1.4818888863
 H         -1.3159615408        2.9332487700        2.1635632359
 H         -0.2262681721        1.6445287586        1.7447493436
 C         -4.8396348126       -2.4364277758       -1.4621071744
 O         -4.0553411054       -2.8592255479       -0.6216332871
 N         -4.6782911455       -1.2262643669       -2.0453146409
 H         -3.7947996647       -0.7556469209       -1.8949391418
 H         -5.2270377855       -0.9601305426       -2.8427106899
 N         -5.9229777033       -3.1526195203       -1.8563760105
 H         -6.6402635549       -2.7493011513       -2.4310793408
 H         -6.1452269744       -3.9886614220       -1.3456618425
 C          2.1395260698        0.8020415174        1.3052460425
 O          1.1126352044        0.5863507043        1.9729118043
 N          3.3715734878        0.5901642174        1.8064780619
 H          3.4737558045        0.4224842805        2.7911425915
 H          4.1660259176        0.8978398718        1.2622369530
 N          2.0887437321        1.1712490471        0.0164686207
 H          2.9495900503        1.4301553165       -0.4407736542
 H          1.1960715847        1.4249660016       -0.3948129819
