  53

 O         -0.1386725050       -1.2078171178       -2.0311183627
 C         -0.9462286365       -1.9785045464       -1.1883946595
 H         -1.9541055557       -1.5599473163       -1.2491588968
 H         -0.9939124494       -3.0157123937       -1.5501277209
 C         -0.4744822548       -2.0578044910        0.2697873520
 H          0.4690089851       -2.6065425859        0.2996335148
 H         -1.2418928983       -2.6017507374        0.8245894036
 N         -0.2604271506       -0.7616608105        0.9683194575
 C          0.9840298949       -0.1115197093        0.5321793909
 H          1.8192924668       -0.8031335660        0.6050753773
 H          1.1569650375        0.7565532765        1.1660779014
 H          0.8922854330        0.2293656150       -0.4951716510
 C         -0.1626142918       -1.0279278752        2.4135852193
 H          0.6650630984       -1.7050398997        2.6139079290
 H         -1.0928160870       -1.4776274648        2.7576735115
 H          0.0065471515       -0.0867605974        2.9335699147
 C         -1.3860898131        0.1600133375        0.7537033823
 H         -2.3042393533       -0.3217822191        1.0842311839
 H         -1.4553122065        0.4261062970       -0.2973941398
 H         -1.2018356285        1.0661088758        1.3297463699
 H          0.7996452550       -1.5159801578       -1.9430796253
 C          3.3317564037       -1.2929734821       -2.1201852000
 O          2.3940792894       -1.8992179088       -1.6047041833
 N          3.2637986184        0.0104790317       -2.4575507145
 H          2.4784013594        0.5845603685       -2.1695394721
 H          4.0805289260        0.4913160534       -2.7885242371
 N          4.5088937350       -1.9153835503       -2.3732336626
 H          5.2424011779       -1.4745314512       -2.8974706809
 H          4.5508508063       -2.9113329845       -2.2476038499
 C          0.9162183335        3.4346293422        1.8376486829
 O          0.3536352954        2.3900525709        2.1364055555
 N          1.3339208475        3.7108319899        0.5791490306
 H          1.3085540347        2.9910413611       -0.1351610219
 H          1.9287089247        4.5023253018        0.4119397805
 N          1.1641716669        4.3987311164        2.7628997698
 H          1.4887394468        5.3125488601        2.5042475418
 H          0.7582893188        4.2865277305        3.6749536317
 C         -4.0198330972       -2.7861283223        2.5806230510
 O         -3.0141347692       -2.2893921197        2.0933312533
 N         -4.6242314803       -3.8724588855        2.0413775808
 H         -4.1742090264       -4.3407605603        1.2756036850
 H         -5.3822174235       -4.3423139101        2.5014104184
 N         -4.6050720842       -2.2845114982        3.6949217168
 H         -5.4811465441       -2.6317787919        4.0393492340
 H         -4.2537756867       -1.4249479099        4.0771484976
 C          0.3577754602        2.2818824706       -2.6241281456
 O          1.2167099916        1.9775891379       -1.7946005286
 N         -0.5238479945        1.3844975806       -3.0993136887
 H         -0.4154700926        0.4096380570       -2.8339776494
 H         -1.1419586163        1.6095827923       -3.8571712689
 N          0.2364266019        3.5510192406       -3.0787747877
 H         -0.4734346909        3.8210063553       -3.7340025948
 H          0.8547230956        4.2568724314       -2.7231295896
