  53

 O         -3.8713697917       -1.1665450981        1.5097331996
 C         -3.4999594425       -1.4692416293        2.8211347027
 H         -4.0843197836       -0.8133017998        3.4737991620
 H         -3.7714003345       -2.5073822772        3.0683672774
 C         -1.9917526595       -1.3517829910        3.0701503299
 H         -1.5033590078       -1.8995533749        2.2601835129
 H         -1.7432321545       -1.8185897922        4.0244241766
 N         -1.4234971901        0.0274531417        3.0679963939
 C         -1.9240148531        0.8239247695        1.9346349747
 H         -1.7239634558        0.2829915614        1.0115105354
 H         -1.4017821354        1.7777014785        1.9158246242
 H         -2.9947080602        0.9855332333        2.0209162456
 C          0.0380677911       -0.0845389458        2.9208882106
 H          0.2628895902       -0.6056041432        1.9923628893
 H          0.4668485727       -0.6322818048        3.7572466836
 H          0.4744728262        0.9125070237        2.8633480494
 C         -1.7368346846        0.7269468970        4.3220808044
 H         -1.3269642270        0.1851100851        5.1729990513
 H         -2.8142309494        0.8142193471        4.4456343303
 H         -1.3040297341        1.7255363481        4.2974713232
 H         -3.1944619726       -1.5294391999        0.9048263420
 C          2.2379802247       -1.3966183458       -3.9859940893
 O          1.0203922922       -1.5665553458       -3.8544865073
 N          2.9594861180       -0.7322777144       -3.0673067998
 H          2.4723076265       -0.2659129238       -2.2987834359
 H          3.9316840165       -0.5326855530       -3.2144178929
 N          2.8977443494       -1.8916069657       -5.0548454690
 H          3.8899902079       -1.7978235576       -5.1686292145
 H          2.3825600425       -2.4270534608       -5.7304534372
 C          1.9744481860        2.9409646037        1.6554855186
 O          0.7686950448        2.7129045570        1.7968490097
 N          2.7274548438        2.2702754426        0.7712123029
 H          2.2921941511        1.5934178223        0.1377668530
 H          3.6991065583        2.4871945769        0.6464643382
 N          2.6087969193        3.8466677950        2.4402676195
 H          3.5559495901        4.1271706479        2.2621751216
 H          2.0514362256        4.4310484745        3.0378150711
 C          0.3526441333        1.0261101681       -1.4451782329
 O          1.4459253670        0.5797008265       -1.0638305518
 N         -0.1752065421        0.6865868287       -2.6339040603
 H          0.2326880714       -0.0865930914       -3.1591817736
 H         -1.1045309574        0.9763078991       -2.8791372288
 N         -0.3572656451        1.8737289646       -0.6750447590
 H         -1.1715530853        2.3346792543       -1.0377445640
 H          0.0539966010        2.2237723570        0.1895961697
 C         -1.0550313885       -1.9665253757       -0.9610225422
 O         -1.4733849071       -1.7254606843        0.1753360028
 N         -1.8816321841       -1.9939092107       -2.0328147959
 H         -2.8750811478       -2.0220785691       -1.8832063622
 H         -1.5244248877       -2.2853649590       -2.9262021823
 N          0.2409461039       -2.2182670980       -1.2210545738
 H          0.5592992418       -2.1641033147       -2.1852191162
 H          0.9176625272       -1.9828220630       -0.5150413893
