  50

 C         -0.3062524754       -2.7629921248       -0.7807859355
 O         -0.1442682843       -1.5378314987       -0.8756736510
 N          0.3500886708       -3.6231964505       -1.5849623121
 H          0.8330230376       -3.2560754967       -2.3871101589
 H          0.1259821235       -4.6031381999       -1.5948896030
 N         -1.1076510038       -3.2964556057        0.1569332883
 H         -1.2474195616       -4.2873984795        0.2412928099
 H         -1.5895386009       -2.6899161879        0.7991335338
 O          1.5634137425        0.4163086102        0.0033478942
 C          2.4017198744       -0.2021827646        0.9393059235
 H          2.5287878034        0.4936037106        1.7729487806
 H          1.9426882168       -1.1127306459        1.3392638582
 C          3.7735437718       -0.6232573564        0.3729695259
 H          3.6138914011       -1.3044853546       -0.4659620239
 H          4.3035468900       -1.1596366943        1.1622016376
 N          4.6547627800        0.4815749167       -0.1095279891
 C          4.1039238722        1.0669678163       -1.3472075486
 H          4.1199655417        0.3310673791       -2.1487981212
 H          4.6987356124        1.9258363778       -1.6505941301
 H          3.0743952230        1.3790376191       -1.1757489886
 C          5.9909282091       -0.0788564300       -0.3941404516
 H          5.9146756360       -0.9098550309       -1.0931565259
 H          6.4580120180       -0.4348540048        0.5224486667
 H          6.6293314672        0.6851576019       -0.8344449837
 C          4.7925173410        1.5418497290        0.9060902649
 H          5.0692510890        1.1121662173        1.8672571526
 H          3.8582606077        2.0887848530        1.0093152644
 H          5.5685222350        2.2425833717        0.6032216185
 H          1.0161387255       -0.2560913063       -0.4473407126
 O         -2.0861803690       -0.2693862599        0.5153033929
 C         -1.9243190671        1.1181479046        0.6039468739
 H         -2.2112123105        1.4174619842        1.6160011440
 H         -0.8769833033        1.4039849329        0.4580364983
 C         -2.7408079433        1.9069694304       -0.4405517863
 H         -2.4114033492        1.6138115622       -1.4397777038
 H         -2.5209973326        2.9661666419       -0.2961453460
 N         -4.2230036013        1.7272104429       -0.3880767158
 C         -4.5880084989        0.3879041984       -0.8888551082
 H         -4.3225037579        0.2957490144       -1.9402411983
 H         -5.6589780966        0.2288002038       -0.7832960094
 H         -4.0499315881       -0.3688806888       -0.3194182800
 C         -4.8485580813        2.7502201704       -1.2490090918
 H         -4.4337835472        2.7060229709       -2.2545318738
 H         -4.6777671940        3.7457984884       -0.8431142758
 H         -5.9221447161        2.5804761363       -1.3100356444
 C         -4.7359041858        1.8825146289        0.9854596774
 H         -4.3808279587        2.8158287929        1.4187675488
 H         -4.4112548947        1.0489668182        1.6040379874
 H         -5.8241878884        1.8973334647        0.9721667106
 H         -1.3896420492       -0.6553644332       -0.0657185695
          50
        -62.95584703
 C         10.1132065502       -2.7981629497        0.0026522935
 O         10.3407909484       -1.6022150474        0.2028553248
 N         10.9669252704       -3.7579151695        0.4071984686
 H         11.7816948206       -3.4973165892        0.9335538205
 H         10.7711785663       -4.7349532145        0.2874540423
 N          9.0012449333       -3.2135396248       -0.6376574406
 H          8.8296340420       -4.1831182704       -0.8319344473
 H          8.3496464570       -2.5357306278       -0.9937549204
 O          8.4690925406        0.1868227639       -0.5564638505
 C          8.5186158683        1.1136397871        0.4826103084
 H          8.0048823461        2.0132724878        0.1337879337
 H          7.9717598595        0.7425440720        1.3628420086
 C          9.9447576295        1.4088727497        0.9728945978
 H         10.3931354195        0.4510757140        1.2504684278
 H          9.8832114316        2.0483651309        1.8549817627
 N         10.8644301911        2.0583150432       -0.0078351761
 C         11.0668677189        1.1914339500       -1.1843394509
 H         11.3809927593        0.1997337755       -0.8610248414
 H         11.8235535037        1.6212642136       -1.8368573273
 H         10.1326605809        1.0847660304       -1.7322638562
 C         12.1638632790        2.2605983909        0.6593577628
 H         12.5656574942        1.3039785237        0.9886672423
 H         12.0504452822        2.9109646977        1.5251024616
 H         12.8722881290        2.7175856099       -0.0297036196
 C         10.3393703525        3.3625625161       -0.4456729370
 H         10.1331618502        3.9960488216        0.4156133678
 H          9.4229448253        3.2280293859       -1.0157647662
 H         11.0692497118        3.8603279956       -1.0818369526
 H          9.0583871459       -0.5657073370       -0.3051419953
 O        -13.9706489662       -0.6065538226        0.4202736632
 C        -14.7823739500        0.0204291354        1.3862581617
 H        -15.2349344806       -0.7272069311        2.0514555892
 H        -14.1980007746        0.7100374753        2.0075594568
 C        -15.8635988280        0.8673989719        0.7038616346
 H        -15.3849193440        1.7129213872        0.2061887629
 H        -16.5202635945        1.2477868753        1.4885546263
 N        -16.6965499774        0.1641989315       -0.3177320141
 C        -17.0644022503       -1.1911303099        0.1290063375
 H        -16.1780347823       -1.8208084141        0.1665889647
 H        -17.7717246707       -1.6306891162       -0.5718963613
 H        -17.5278452019       -1.1524504521        1.1131514932
 C        -15.9577577680        0.0674482568       -1.5932393089
 H        -14.9985354999       -0.4173432473       -1.4222070275
 H        -15.7834981244        1.0609349335       -2.0016799986
 H        -16.5328809417       -0.5113525081       -2.3133055479
 C        -17.9256790817        0.9501612647       -0.5388888199
 H        -18.5422401153        0.9550738140        0.3585611020
 H        -18.5028462379        0.5168063026       -1.3541642859
 H        -17.6761074379        1.9775326613       -0.7987476527
 H        -13.1594523197       -0.9263488082        0.8283172613
