  50

 C          0.5070847859        0.1791003720        0.1919313048
 O          0.6283479015       -1.0359982302        0.1829304510
 N         -0.6231265141        0.7676664284        0.6909394392
 H         -1.3733796940        0.2131038588        1.0605926270
 H         -0.7592462410        1.7650084231        0.7094083899
 N          1.4941787887        0.9820239899       -0.3087730890
 H          1.4357290978        1.9854152282       -0.3097111909
 H          2.3399282176        0.5881807031       -0.6772687170
 O         -0.9709632735       -3.4535502719        0.6228810763
 C         -1.2460032846       -3.5902283401        1.9973249823
 H         -1.8659354207       -4.4850810592        2.1154824488
 H         -0.3001659126       -3.8099727685        2.5111251731
 C         -1.9291768676       -2.3705292039        2.5999145834
 H         -1.3244549513       -1.4845359832        2.4023907997
 H         -1.9833065377       -2.4629718410        3.6879411856
 N         -3.3477861262       -2.1114323161        2.0871329957
 C         -3.3980361722       -1.9983530110        0.5817823895
 H         -2.7669879765       -1.1847899294        0.2371176789
 H         -4.4158265299       -1.8095159728        0.2480160931
 H         -3.0519401511       -2.9225492194        0.1260103601
 C         -3.8530618670       -0.8194672353        2.6973641058
 H         -3.2241532752        0.0173937876        2.4030888843
 H         -3.8507090798       -0.8874456407        3.7829252025
 H         -4.8694456959       -0.6169505204        2.3671118666
 C         -4.2667330894       -3.2346809866        2.5191850961
 H         -4.2209719822       -3.3698639219        3.5974144783
 H         -3.9869283044       -4.1682926958        2.0382250626
 H         -5.2942470946       -3.0075851408        2.2439202162
 H         -0.4204263254       -2.6408057472        0.4753374493
 O          1.1364044033       -2.1449756839       -2.4982494248
 C         -0.0039983656       -2.9157360698       -2.7997620267
 H          0.0872040861       -3.2423126163       -3.8408943056
 H          0.0401342102       -3.8294401630       -2.1909994405
 C         -1.3123482547       -2.1710060118       -2.5708272489
 H         -1.3393574715       -1.8002936710       -1.5453401010
 H         -2.1617071365       -2.8512961415       -2.6748556683
 N         -1.5513971731       -0.9802184134       -3.4983821176
 C         -0.4542035745        0.0480234003       -3.3643792138
 H         -0.3784790806        0.3877651219       -2.3343981294
 H         -0.6579321148        0.9072857187       -3.9994329338
 H          0.4995308350       -0.3813179764       -3.6602215692
 C         -2.8653680755       -0.3351546118       -3.1056238184
 H         -2.8229536945        0.0170326084       -2.0772470347
 H         -3.6808381166       -1.0495828108       -3.1938279148
 H         -3.0790618423        0.5140392673       -3.7509209084
 C         -1.6408701554       -1.4353143093       -4.9376776005
 H         -2.3960871555       -2.2107834322       -5.0438750319
 H         -0.6859358575       -1.8283501878       -5.2767036616
 H         -1.9106533183       -0.6003233929       -5.5804557497
 H          1.0255443588       -1.7547491181       -1.5929329199
