 xtb: 6.6.1 (unknown-commit)
          01152410463D

 50 47  0     0  0            999 V2000
   -0.3063   -2.7630   -0.7808 c   0  0  0  0  0  0  0  0  0  0  0  0
   -0.1443   -1.5378   -0.8757 o   0  0  0  0  0  0  0  0  0  0  0  0
    0.3501   -3.6232   -1.5850 n   0  0  0  0  0  0  0  0  0  0  0  0
    0.8330   -3.2561   -2.3871 h   0  0  0  0  0  0  0  0  0  0  0  0
    0.1260   -4.6031   -1.5949 h   0  0  0  0  0  0  0  0  0  0  0  0
   -1.1077   -3.2965    0.1569 n   0  0  0  0  0  0  0  0  0  0  0  0
   -1.2474   -4.2874    0.2413 h   0  0  0  0  0  0  0  0  0  0  0  0
   -1.5895   -2.6899    0.7991 h   0  0  0  0  0  0  0  0  0  0  0  0
    1.5634    0.4163    0.0033 o   0  0  0  0  0  0  0  0  0  0  0  0
    2.4017   -0.2022    0.9393 c   0  0  0  0  0  0  0  0  0  0  0  0
    2.5288    0.4936    1.7729 h   0  0  0  0  0  0  0  0  0  0  0  0
    1.9427   -1.1127    1.3393 h   0  0  0  0  0  0  0  0  0  0  0  0
    3.7735   -0.6233    0.3730 c   0  0  0  0  0  0  0  0  0  0  0  0
    3.6139   -1.3045   -0.4660 h   0  0  0  0  0  0  0  0  0  0  0  0
    4.3035   -1.1596    1.1622 h   0  0  0  0  0  0  0  0  0  0  0  0
    4.6548    0.4816   -0.1095 n   0  0  0  0  0  0  0  0  0  0  0  0
    4.1039    1.0670   -1.3472 c   0  0  0  0  0  0  0  0  0  0  0  0
    4.1200    0.3311   -2.1488 h   0  0  0  0  0  0  0  0  0  0  0  0
    4.6987    1.9258   -1.6506 h   0  0  0  0  0  0  0  0  0  0  0  0
    3.0744    1.3790   -1.1757 h   0  0  0  0  0  0  0  0  0  0  0  0
    5.9909   -0.0789   -0.3941 c   0  0  0  0  0  0  0  0  0  0  0  0
    5.9147   -0.9099   -1.0932 h   0  0  0  0  0  0  0  0  0  0  0  0
    6.4580   -0.4349    0.5224 h   0  0  0  0  0  0  0  0  0  0  0  0
    6.6293    0.6852   -0.8344 h   0  0  0  0  0  0  0  0  0  0  0  0
    4.7925    1.5418    0.9061 c   0  0  0  0  0  0  0  0  0  0  0  0
    5.0693    1.1122    1.8673 h   0  0  0  0  0  0  0  0  0  0  0  0
    3.8583    2.0888    1.0093 h   0  0  0  0  0  0  0  0  0  0  0  0
    5.5685    2.2426    0.6032 h   0  0  0  0  0  0  0  0  0  0  0  0
    1.0161   -0.2561   -0.4473 h   0  0  0  0  0  0  0  0  0  0  0  0
   -2.0862   -0.2694    0.5153 o   0  0  0  0  0  0  0  0  0  0  0  0
   -1.9243    1.1181    0.6039 c   0  0  0  0  0  0  0  0  0  0  0  0
   -2.2112    1.4175    1.6160 h   0  0  0  0  0  0  0  0  0  0  0  0
   -0.8770    1.4040    0.4580 h   0  0  0  0  0  0  0  0  0  0  0  0
   -2.7408    1.9070   -0.4406 c   0  0  0  0  0  0  0  0  0  0  0  0
   -2.4114    1.6138   -1.4398 h   0  0  0  0  0  0  0  0  0  0  0  0
   -2.5210    2.9662   -0.2961 h   0  0  0  0  0  0  0  0  0  0  0  0
   -4.2230    1.7272   -0.3881 n   0  0  0  0  0  0  0  0  0  0  0  0
   -4.5880    0.3879   -0.8889 c   0  0  0  0  0  0  0  0  0  0  0  0
   -4.3225    0.2957   -1.9402 h   0  0  0  0  0  0  0  0  0  0  0  0
   -5.6590    0.2288   -0.7833 h   0  0  0  0  0  0  0  0  0  0  0  0
   -4.0499   -0.3689   -0.3194 h   0  0  0  0  0  0  0  0  0  0  0  0
   -4.8486    2.7502   -1.2490 c   0  0  0  0  0  0  0  0  0  0  0  0
   -4.4338    2.7060   -2.2545 h   0  0  0  0  0  0  0  0  0  0  0  0
   -4.6778    3.7458   -0.8431 h   0  0  0  0  0  0  0  0  0  0  0  0
   -5.9221    2.5805   -1.3100 h   0  0  0  0  0  0  0  0  0  0  0  0
   -4.7359    1.8825    0.9855 c   0  0  0  0  0  0  0  0  0  0  0  0
   -4.3808    2.8158    1.4188 h   0  0  0  0  0  0  0  0  0  0  0  0
   -4.4113    1.0490    1.6040 h   0  0  0  0  0  0  0  0  0  0  0  0
   -5.8242    1.8973    0.9722 h   0  0  0  0  0  0  0  0  0  0  0  0
   -1.3896   -0.6554   -0.0657 h   0  0  0  0  0  0  0  0  0  0  0  0
  1  2  4  0  0  0  0
  1  3  4  0  0  0  0
  3  4  1  0  0  0  0
  3  5  1  0  0  0  0
  1  6  4  0  0  0  0
  6  7  1  0  0  0  0
  6  8  1  0  0  0  0
  9 10  1  0  0  0  0
 10 11  1  0  0  0  0
 10 12  1  0  0  0  0
 10 13  1  0  0  0  0
 13 14  1  0  0  0  0
 13 15  1  0  0  0  0
 13 16  1  0  0  0  0
 16 17  1  0  0  0  0
 17 18  1  0  0  0  0
 17 19  1  0  0  0  0
 17 20  1  0  0  0  0
 16 21  1  0  0  0  0
 21 22  1  0  0  0  0
 21 23  1  0  0  0  0
 21 24  1  0  0  0  0
 16 25  1  0  0  0  0
 25 26  1  0  0  0  0
 25 27  1  0  0  0  0
 25 28  1  0  0  0  0
  9 29  1  0  0  0  0
 30 31  1  0  0  0  0
 31 32  1  0  0  0  0
 31 33  1  0  0  0  0
 31 34  1  0  0  0  0
 34 35  1  0  0  0  0
 34 36  1  0  0  0  0
 34 37  1  0  0  0  0
 37 38  1  0  0  0  0
 38 39  1  0  0  0  0
 38 40  1  0  0  0  0
 38 41  1  0  0  0  0
 37 42  1  0  0  0  0
 42 43  1  0  0  0  0
 42 44  1  0  0  0  0
 42 45  1  0  0  0  0
 37 46  1  0  0  0  0
 46 47  1  0  0  0  0
 46 48  1  0  0  0  0
 46 49  1  0  0  0  0
 30 50  1  0  0  0  0
M  CHG  1   1   2
M  END
