53
 xtb: 6.6.1 (unknown-commit)
O            1.01773931582802        0.51751475179219       -1.22617789352348
C            0.64994035055985       -0.58912074141510       -1.99138131705553
H            0.82654831837864       -0.31760660422078       -3.04091802062615
H            1.29227220193765       -1.44982088511488       -1.76379824751463
C           -0.79615745489585       -1.05991051480007       -1.77007458206242
H           -0.93519319576588       -1.32068705104830       -0.72133045650703
H           -0.94756750680044       -1.94972145946951       -2.38579333202475
N           -1.86264237136686       -0.07981495474033       -2.10804809237274
C           -1.88303634316936        1.01872362257152       -1.12648351361209
H           -2.06895630484204        0.59431060161284       -0.14085712431382
H           -2.68139112191394        1.70608630295789       -1.39279014492266
H           -0.92339467446193        1.53109232557151       -1.12474532390016
C           -3.16200044482574       -0.76974820446241       -2.03582378198150
H           -3.27986826798037       -1.18835508411458       -1.04366262259251
H           -3.20451210507137       -1.56428790293632       -2.78182213843180
H           -3.94737725720930       -0.04366164731253       -2.23803681302457
C           -1.69557010666551        0.48574553085524       -3.45484943368389
H           -1.61339104104187       -0.30335659736705       -4.19489150320909
H           -0.80191457456830        1.11297626217013       -3.49173394285199
H           -2.56285035157230        1.10958265310570       -3.67641827589357
H            1.01835014325726        0.23467853680602       -0.27805142450276
C            6.86505177510538       -0.67741174067494        2.76646493918615
O            5.68384675398609       -0.67618714895151        2.44892721536330
N            7.85483754006286       -0.48338817505721        1.86030699504646
H            7.61119472356096       -0.46145530747746        0.89363781906333
H            8.81974668027477       -0.60638991678572        2.10885402211771
N            7.27049860659855       -0.87394740280260        4.04410342656761
H            8.22165896416500       -0.74636439042062        4.32835510246445
H            6.56638444474749       -0.88947104886722        4.77286922827401
C           -5.29829603581849        2.77907661288072       -3.16104917010220
O           -4.37964754448523        2.00692481780033       -2.92744266013367
N           -6.50361741983048        2.34657983520082       -3.63544378898517
H           -6.66825237020424        1.37103215425435       -3.69102332895467
H           -7.25292865110634        2.98559638986133       -3.80680690513216
N           -5.17972837159497        4.12343111153486       -2.96392738806543
H           -5.92623181935275        4.75394160401164       -3.15694380495102
H           -4.28314578511897        4.49103315864763       -2.71406810281767
C           -2.20176360771183       -1.51199598646536        2.09974958089216
O           -2.36487628430797       -1.33777759207873        0.89889657334789
N           -3.25313717739230       -1.77176501820367        2.92731628684569
H           -4.13764324830845       -1.99515378988581        2.49290400405146
H           -3.10794161087887       -2.10005537441448        3.86098006110981
N           -0.98861424003364       -1.45082382762748        2.68524775616433
H           -0.91638858432187       -1.43448733244813        3.68089097260468
H           -0.20174979749794       -1.10308436309675        2.13331235566529
C            2.42259247823939       -0.53101827917752        1.56635162527729
O            1.22875630440343       -0.49618059806547        1.23112883953591
N            2.83996720133579       -1.14959111115279        2.68610989750798
H            2.19524838269099       -1.70967279970107        3.21570779978579
H            3.82834694747011       -1.19101310359100        2.87577023909170
N            3.38890442858051        0.05075800883428        0.83811911205426
H            4.34067200395452        0.01220457883184        1.17186051924721
H            3.14538493913160        0.59395999010052        0.02805221031233
