 xtb: 6.6.1 (unknown-commit)
          01102415383D

 53 48  0     0  0            999 V2000
    1.0201    0.5211   -1.2289 O   0  0  0  0  0  0  0  0  0  0  0  0
    0.6533   -0.5847   -1.9963 C   0  0  0  0  0  0  0  0  0  0  0  0
    0.8276   -0.3156   -3.0422 H   0  0  0  0  0  0  0  0  0  0  0  0
    1.2935   -1.4485   -1.7657 H   0  0  0  0  0  0  0  0  0  0  0  0
   -0.7924   -1.0574   -1.7768 C   0  0  0  0  0  0  0  0  0  0  0  0
   -0.9341   -1.3210   -0.7235 H   0  0  0  0  0  0  0  0  0  0  0  0
   -0.9462   -1.9484   -2.3886 H   0  0  0  0  0  0  0  0  0  0  0  0
   -1.8593   -0.0768   -2.1119 N   0  0  0  0  0  0  0  0  0  0  0  0
   -1.8817    1.0176   -1.1257 C   0  0  0  0  0  0  0  0  0  0  0  0
   -2.0686    0.5928   -0.1411 H   0  0  0  0  0  0  0  0  0  0  0  0
   -2.6812    1.7059   -1.3917 H   0  0  0  0  0  0  0  0  0  0  0  0
   -0.9232    1.5311   -1.1238 H   0  0  0  0  0  0  0  0  0  0  0  0
   -3.1584   -0.7683   -2.0431 C   0  0  0  0  0  0  0  0  0  0  0  0
   -3.2789   -1.1891   -1.0463 H   0  0  0  0  0  0  0  0  0  0  0  0
   -3.2031   -1.5630   -2.7849 H   0  0  0  0  0  0  0  0  0  0  0  0
   -3.9464   -0.0431   -2.2396 H   0  0  0  0  0  0  0  0  0  0  0  0
   -1.6921    0.4940   -3.4561 C   0  0  0  0  0  0  0  0  0  0  0  0
   -1.6120   -0.3001   -4.1961 H   0  0  0  0  0  0  0  0  0  0  0  0
   -0.8011    1.1157   -3.4912 H   0  0  0  0  0  0  0  0  0  0  0  0
   -2.5620    1.1119   -3.6763 H   0  0  0  0  0  0  0  0  0  0  0  0
    1.0187    0.2350   -0.2789 H   0  0  0  0  0  0  0  0  0  0  0  0
    6.8611   -0.6749    2.7745 C   0  0  0  0  0  0  0  0  0  0  0  0
    5.6801   -0.6741    2.4550 O   0  0  0  0  0  0  0  0  0  0  0  0
    7.8527   -0.4809    1.8713 N   0  0  0  0  0  0  0  0  0  0  0  0
    7.6113   -0.4611    0.8964 H   0  0  0  0  0  0  0  0  0  0  0  0
    8.8190   -0.6056    2.1125 H   0  0  0  0  0  0  0  0  0  0  0  0
    7.2630   -0.8700    4.0540 N   0  0  0  0  0  0  0  0  0  0  0  0
    8.2194   -0.7451    4.3316 H   0  0  0  0  0  0  0  0  0  0  0  0
    6.5639   -0.8883    4.7750 H   0  0  0  0  0  0  0  0  0  0  0  0
   -5.2983    2.7815   -3.1534 C   0  0  0  0  0  0  0  0  0  0  0  0
   -4.3802    2.0073   -2.9245 O   0  0  0  0  0  0  0  0  0  0  0  0
   -6.5447    2.3521   -3.4680 N   0  0  0  0  0  0  0  0  0  0  0  0
   -6.6905    1.3695   -3.6150 H   0  0  0  0  0  0  0  0  0  0  0  0
   -7.2667    2.9845   -3.7607 H   0  0  0  0  0  0  0  0  0  0  0  0
   -5.1378    4.1262   -3.1078 N   0  0  0  0  0  0  0  0  0  0  0  0
   -5.9121    4.7583   -3.1945 H   0  0  0  0  0  0  0  0  0  0  0  0
   -4.2609    4.4941   -2.7851 H   0  0  0  0  0  0  0  0  0  0  0  0
   -2.2014   -1.5222    2.0910 C   0  0  0  0  0  0  0  0  0  0  0  0
   -2.3635   -1.3490    0.8888 O   0  0  0  0  0  0  0  0  0  0  0  0
   -3.2528   -1.7872    2.9164 N   0  0  0  0  0  0  0  0  0  0  0  0
   -4.1372   -2.0001    2.4896 H   0  0  0  0  0  0  0  0  0  0  0  0
   -3.1078   -2.1043    3.8580 H   0  0  0  0  0  0  0  0  0  0  0  0
   -0.9891   -1.4581    2.6774 N   0  0  0  0  0  0  0  0  0  0  0  0
   -0.9169   -1.4366    3.6788 H   0  0  0  0  0  0  0  0  0  0  0  0
   -0.2020   -1.1043    2.1315 H   0  0  0  0  0  0  0  0  0  0  0  0
    2.4211   -0.5313    1.5649 C   0  0  0  0  0  0  0  0  0  0  0  0
    1.2278   -0.4973    1.2267 O   0  0  0  0  0  0  0  0  0  0  0  0
    2.8367   -1.1517    2.6842 N   0  0  0  0  0  0  0  0  0  0  0  0
    2.1942   -1.7108    3.2145 H   0  0  0  0  0  0  0  0  0  0  0  0
    3.8274   -1.1914    2.8758 H   0  0  0  0  0  0  0  0  0  0  0  0
    3.3883    0.0531    0.8399 N   0  0  0  0  0  0  0  0  0  0  0  0
    4.3403    0.0129    1.1729 H   0  0  0  0  0  0  0  0  0  0  0  0
    3.1455    0.5950    0.0287 H   0  0  0  0  0  0  0  0  0  0  0  0
  1  2  1  0  0  0  0
  2  3  1  0  0  0  0
  2  4  1  0  0  0  0
  2  5  1  0  0  0  0
  5  6  1  0  0  0  0
  5  7  1  0  0  0  0
  5  8  1  0  0  0  0
  8  9  1  0  0  0  0
  9 10  1  0  0  0  0
  9 11  1  0  0  0  0
  9 12  1  0  0  0  0
  8 13  1  0  0  0  0
 13 14  1  0  0  0  0
 13 15  1  0  0  0  0
 13 16  1  0  0  0  0
  8 17  1  0  0  0  0
 17 18  1  0  0  0  0
 17 19  1  0  0  0  0
 17 20  1  0  0  0  0
  1 21  1  0  0  0  0
 22 23  2  0  0  0  0
 22 24  4  0  0  0  0
 24 25  1  0  0  0  0
 24 26  1  0  0  0  0
 22 27  4  0  0  0  0
 27 28  1  0  0  0  0
 27 29  1  0  0  0  0
 30 31  2  0  0  0  0
 30 32  4  0  0  0  0
 32 33  1  0  0  0  0
 32 34  1  0  0  0  0
 30 35  4  0  0  0  0
 35 36  1  0  0  0  0
 35 37  1  0  0  0  0
 38 39  2  0  0  0  0
 38 40  1  0  0  0  0
 40 41  1  0  0  0  0
 40 42  1  0  0  0  0
 38 43  4  0  0  0  0
 43 44  1  0  0  0  0
 43 45  1  0  0  0  0
 46 47  4  0  0  0  0
 46 48  4  0  0  0  0
 48 49  1  0  0  0  0
 48 50  1  0  0  0  0
 46 51  4  0  0  0  0
 51 52  1  0  0  0  0
 51 53  1  0  0  0  0
M  CHG  1   1   1
M  END
