  53

 O          2.7428336405       -0.7672111431       -0.2835949206
 C          2.8749879604        0.4616683061       -0.9321374359
 H          3.8191171229        0.8934965715       -0.5882878369
 H          2.9516488364        0.3250881186       -2.0208140227
 C          1.7087143821        1.4379214438       -0.7086891460
 H          0.7846732497        1.0141980113       -1.1135414432
 H          1.9428123384        2.3539072433       -1.2548222959
 N          1.4156526033        1.8007361671        0.7034205837
 C          0.7798927917        0.6713286881        1.4050912062
 H         -0.1398883002        0.4128340914        0.8833734368
 H          0.5554561943        0.9803687484        2.4239931323
 H          1.4523272151       -0.1830104600        1.4123247469
 C          0.4556261991        2.9184446029        0.7019685071
 H         -0.4410449849        2.6110269488        0.1659430711
 H          0.8906848407        3.7914087836        0.2200735938
 H          0.2082962270        3.1608229373        1.7344332391
 C          2.6233709977        2.2030903639        1.4381858144
 H          3.1374627860        3.0037434697        0.9098780582
 H          3.2915142767        1.3530849100        1.5519630426
 H          2.3206963490        2.5528383184        2.4250059650
 H          1.9608420208       -1.2383244528       -0.6655402598
 C          1.0885456060       -3.0093741903       -2.1934177590
 O          0.7244297387       -2.0479119701       -1.4892385438
 N          2.3878549005       -3.3735189994       -2.2282118422
 H          3.0400705398       -2.9074994874       -1.6197816649
 H          2.6988630072       -4.1794119488       -2.7388689984
 N          0.2217866925       -3.6796261004       -2.9517199232
 H          0.5066316884       -4.4665598734       -3.5053947796
 H         -0.7765031533       -3.4354557674       -2.9101788876
 C          0.5303245844        3.2280563833        4.9704449617
 O          0.7310546112        2.8168934092        3.8357869130
 N         -0.4035377050        4.1703653195        5.2423502458
 H         -1.0049199285        4.4824901235        4.5015355911
 H         -0.6241267413        4.4487130237        6.1806458317
 N          1.2298324018        2.7728690424        6.0368667891
 H          1.1235260919        3.1656615618        6.9538499523
 H          1.9833479561        2.1279894220        5.8810965579
 C         -2.8082420051       -2.7766749543       -1.4673221732
 O         -2.4339848236       -2.9745624482       -2.6206860047
 N         -1.9460941204       -2.5057487367       -0.4651385089
 H         -0.9781438085       -2.3126393523       -0.7052446684
 H         -2.2779145552       -2.2047763397        0.4328100295
 N         -4.1264736110       -2.8016751962       -1.1408447314
 H         -4.4230576299       -2.8212832928       -0.1816718400
 H         -4.7624821646       -3.1654524906       -1.8295356999
 C         -1.8921377566        0.4686869483       -1.9229123174
 O         -1.3642456216        0.9503205505       -0.9250320490
 N         -3.1816821487        0.7373938393       -2.2473871828
 H         -3.6625960714        1.4587774888       -1.7400348607
 H         -3.5678427132        0.4383642555       -3.1244646739
 N         -1.2174330569       -0.3320681662       -2.7842049911
 H         -1.7493312674       -0.9078576513       -3.4185416265
 H         -0.3963972813       -0.7929620265       -2.4047921546
