53
 xtb: 6.6.1 (unknown-commit)
O            2.74718597315703       -0.75409661809514       -0.29146135046779
C            2.87372991822961        0.47315476373328       -0.93974463758911
H            3.81840604643346        0.89784343997056       -0.59084765006757
H            2.95110573141918        0.32830572889345       -2.02302464975460
C            1.70411011826626        1.44525514585551       -0.71565312816430
H            0.78368173513800        1.01527194590959       -1.11525203061308
H            1.94035831355019        2.35620212291024       -1.25702700614640
N            1.41066260362610        1.80813562123820        0.69604492929625
C            0.78023396811493        0.67609341571201        1.39939095670155
H           -0.13956679248537        0.41305767383319        0.88191280714142
H            0.55531960169605        0.98176392345155        2.42228887509677
H            1.45342352990399       -0.18084972673167        1.41071495621900
C            0.44667398383549        2.92156243430033        0.69565973643996
H           -0.44338317199271        2.61091346555062        0.16428470612842
H            0.88705534637423        3.79278373420438        0.21814819323385
H            0.20557595767784        3.16138466391704        1.73264558918787
C            2.61803777618477        2.21493593746738        1.42980609159107
H            3.13486513033408        3.00766842715766        0.90716787939715
H            3.29099491057126        1.35728886201473        1.54939691808925
H            2.31924410139045        2.55606727566023        2.42263562273394
H            1.96217133960734       -1.23580699226036       -0.66710333330100
C            1.09293823141114       -3.00773063803803       -2.19046754400014
O            0.72994786649712       -2.04262801950496       -1.49021133352648
N            2.39304710221804       -3.36997382816203       -2.22652608943617
H            3.04174219906943       -2.90531948187243       -1.62060571422574
H            2.70024508969940       -4.17894585435942       -2.73766569770121
N            0.22551182420802       -3.68314584718949       -2.94266550717263
H            0.50750385185015       -4.46827622338066       -3.50192697553711
H           -0.77563028812345       -3.43688797033027       -2.90717908153133
C            0.52751736155824        3.21873842034692        4.96931749654516
O            0.72377684920454        2.81929453051117        3.82905348590625
N           -0.29742963185569        4.27093366061492        5.23277936281960
H           -0.95777130040786        4.53613755399840        4.49503492840242
H           -0.59762667010027        4.47382878269156        6.17817489780990
N            1.12115802590685        2.63555202936484        6.05099274523377
H            1.09961877270017        3.12674777223651        6.95915668822107
H            1.93573011567327        2.06897513360429        5.88708360712019
C           -2.80231296676942       -2.77588770970987       -1.45489006481796
O           -2.43006728028561       -2.98211854646409       -2.60580573694399
N           -1.93730367241838       -2.49849826528798       -0.45539248447587
H           -0.97603552492896       -2.31080286050668       -0.70369316544297
H           -2.27508869068388       -2.20065890623008        0.43489019558761
N           -4.11930714442632       -2.79848553870096       -1.12415598831642
H           -4.42052651260651       -2.81862124094357       -0.17695235985331
H           -4.76101781897215       -3.16587164264917       -1.82395336841056
C           -1.89494919855219        0.46238685471924       -1.92583757668284
O           -1.36716562678650        0.94519739684232       -0.92961383405896
N           -3.18612761442860        0.72637573117110       -2.24822299644574
H           -3.66422359932078        1.45533785760428       -1.73995952594014
H           -3.56931709518449        0.43489163634920       -3.12437768103169
N           -1.21936175205175       -0.33693363230956       -2.78835179265638
H           -1.74967700705332       -0.90968295118385       -3.41931590268586
H           -0.39635202480969       -0.79348671342428       -2.40618904711780
