  53

 O         -1.6531908366       -0.0153210590       -0.1010750103
 C         -1.4432244284        0.9234651384       -1.1130026372
 H         -2.3637355349        0.9576680487       -1.7024190832
 H         -1.2857329577        1.9252793953       -0.6878748194
 C         -0.2279973468        0.6488620689       -2.0108930721
 H          0.6896950162        0.7042272270       -1.4203882340
 H         -0.2145376172        1.4149126888       -2.7880969880
 N         -0.2040210987       -0.6717817125       -2.6993286853
 C          0.0698480390       -1.7478110000       -1.7330368659
 H          1.0262650819       -1.5458013413       -1.2508677721
 H          0.1174973756       -2.7044816179       -2.2491874823
 H         -0.7161505793       -1.7757381714       -0.9818401899
 C          0.8903344155       -0.6285947198       -3.6845869407
 H          0.9738384261       -1.5896997238       -4.1874842640
 H          1.8218337326       -0.4109900439       -3.1644030844
 H          0.6768102652        0.1488970523       -4.4157432926
 C         -1.4695819375       -0.9248526451       -3.4015403201
 H         -2.2791420203       -1.0411994222       -2.6854735742
 H         -1.3874145447       -1.8380351230       -3.9879673518
 H         -1.6734504359       -0.0874355289       -4.0678247218
 H         -0.8689637245        0.0035072951        0.5074556918
 C          3.4653644331        0.2547061332       -0.3635034361
 O          2.7156679817       -0.1607134507       -1.2391357998
 N          3.0914471767        0.3399970927        0.9297880184
 H          2.1040764932        0.2031998922        1.1568270625
 H          3.6595201649        0.8494171986        1.5829965773
 N          4.7327573231        0.6649277180       -0.6497016953
 H          5.4027123491        0.8281544934        0.0803083226
 H          5.0917213482        0.4589779122       -1.5654538321
 C         -1.0164081205        2.6374372326       -5.7439117090
 O         -0.8050031659        1.7300440827       -4.9521967525
 N         -1.7386160990        3.7345809483       -5.4088986082
 H         -2.1940552312        3.7534221770       -4.5142186215
 H         -2.0025513984        4.4250427132       -6.0874778157
 N         -0.5459343771        2.6139288981       -7.0143814385
 H         -0.6311983667        3.4031769613       -7.6281195359
 H          0.0762028526        1.8727160824       -7.2824659922
 C          0.0072318455       -0.4128557440        2.7370219213
 O          0.3928296089       -0.0523754283        1.6134553155
 N         -1.2917728439       -0.5743125203        3.0308876331
 H         -1.9896940331       -0.4018757845        2.3288023121
 H         -1.5485639141       -0.8897055211        3.9547765252
 N          0.8604284489       -0.6435760063        3.7517891046
 H          0.4898412163       -1.0060906292        4.6186876167
 H          1.8486556408       -0.6589835204        3.5784301769
 C         -1.4281286708       -1.9183041512        6.8402847862
 O         -1.0282736667       -1.5416556088        5.7470492517
 N         -2.6418905191       -2.4983459672        7.0035835585
 H         -3.1721371567       -2.7321647722        6.1830938085
 H         -2.9156401376       -2.9161798149        7.8741048346
 N         -0.6862590009       -1.7833712759        7.9663216764
 H         -1.0655316404       -1.9772025584        8.8751665790
 H          0.1611693766       -1.2462580326        7.9167172997
