53
 xtb: 6.6.1 (unknown-commit)
O           -1.65004116896664       -0.01904986159402       -0.10437793060657
C           -1.44131971299968        0.92015980087436       -1.11608169057425
H           -2.36299349887760        0.95610609927938       -1.70364686895579
H           -1.28590799795772        1.92446496688291       -0.68879135997288
C           -0.22442601398291        0.64761256861358       -2.01236152897449
H            0.69052234692789        0.70463784830445       -1.42056679277868
H           -0.21379338644350        1.41426036010481       -2.78882457074361
N           -0.19609347472992       -0.67373744653891       -2.69956144355340
C            0.07915359507374       -1.74810541832990       -1.73210899367370
H            1.02866072679647       -1.54503715170998       -1.25037965574995
H            0.12105790387658       -2.70465854304268       -2.24867020541345
H           -0.71365729002808       -1.77624652947284       -0.98178658478239
C            0.89841400379303       -0.62852524931919       -3.68390300448576
H            0.97696165584090       -1.58973886816915       -4.18705941759846
H            1.82389063103314       -0.41024185395979       -3.16402074952339
H            0.67894358166796        0.14862059497491       -4.41578155029148
C           -1.46114154560651       -0.93054369264772       -3.40237440689041
H           -2.27674232156969       -1.04331172607337       -2.68582276092652
H           -1.38417204023255       -1.83975847774467       -3.98797463823443
H           -1.67162582190787       -0.08938228890659       -4.06824437767809
H           -0.86841579373953        0.00320242379970        0.50692772513047
C            3.46723699388956        0.26369235100337       -0.35966884956065
O            2.71981378247076       -0.15236728137836       -1.23545408423983
N            3.09191166491652        0.34890031822643        0.93355037070496
H            2.10423397018458        0.20495442021283        1.15755759934626
H            3.65916987205171        0.85210690509485        1.58416932704755
N            4.73403560210725        0.67760626490037       -0.64432421348988
H            5.40275738986120        0.83212085706305        0.08187877947740
H            5.09239812673407        0.46274564928116       -1.56397913238650
C           -1.02049713285368        2.63441232302538       -5.74142492860412
O           -0.80609563185704        1.72550616009953       -4.95153973373060
N           -1.60934201449918        3.80347377850489       -5.35418952457152
H           -2.13363482237785        3.78810852063857       -4.48677977870070
H           -1.97086673348872        4.44555919845812       -6.06957060674341
N           -0.68834568752525        2.53947071534655       -7.06158207954905
H           -0.66724957125313        3.38188463618143       -7.64278829540403
H            0.01293604920786        1.83637734991827       -7.30810889237903
C            0.00607885216244       -0.41106524237839        2.73660175103768
O            0.39304568673942       -0.04916328720546        1.61386465271655
N           -1.29317422346320       -0.57665001424359        3.02740330087801
H           -1.98978108737880       -0.40316243591976        2.32742416917479
H           -1.54923983538944       -0.89054956297446        3.95368242477160
N            0.85756443067078       -0.63857553147843        3.75339441806854
H            0.48887031678303       -1.00502489427076        4.61890699372355
H            1.84801960090499       -0.65675243733645        3.57949510475230
C           -1.43440769184418       -1.92214454272169        6.83612602550632
O           -1.03350735729424       -1.54338674431476        5.74391363434877
N           -2.64250539858105       -2.51708347629941        6.99309547729695
H           -3.17020168375139       -2.73940941088273        6.17957371743494
H           -2.91583123125718       -2.92156761376904        7.87110859075742
N           -0.70138568987835       -1.77593644214816        7.96593515563456
H           -1.07038227882778       -1.97590912673743        8.87457882721637
H            0.15540181820791       -1.24143409544395        7.91764489133308
