  53

 O         -1.3682628722       -2.8324852579        1.6145420068
 C          0.0318090416       -2.8949666984        1.6191755989
 H          0.3073229451       -3.9106897154        1.9269214597
 H          0.4548928300       -2.7130288368        0.6304287466
 C          0.6391625070       -1.9390910950        2.6642886879
 H          1.5904855252       -2.3439070102        3.0134579537
 H         -0.0605416054       -1.9149063216        3.5034261164
 N          0.8806422751       -0.5401188132        2.2218862370
 C          1.1854841134        0.2773121126        3.4095010307
 H          0.3324206344        0.2942938048        4.0847648847
 H          1.4067136674        1.2939994745        3.0821746821
 H          2.0468226478       -0.1287262124        3.9361713438
 C         -0.2975095295        0.0291726737        1.5500807629
 H         -1.1719823140       -0.0609727064        2.1905943326
 H         -0.4905942531       -0.4840302350        0.6105503606
 H         -0.1002991249        1.0784669061        1.3352102164
 C          2.0267483330       -0.4577306151        1.3012482016
 H          2.9248203828       -0.8309153263        1.7888762579
 H          2.1719492306        0.5876157420        1.0327692445
 H          1.8400289396       -1.0376992488        0.3998509899
 H         -1.6802652416       -2.3562394722        0.8223483917
 C          0.8311297692       -2.8939333402       -2.0618215722
 O          1.2680698342       -1.9979012870       -1.3377714875
 N         -0.4833004900       -3.0265742351       -2.3087417762
 H         -1.1247190898       -2.4512579827       -1.7689401194
 H         -0.8463219568       -3.8210912146       -2.8026011122
 N          1.6597080849       -3.7883061938       -2.6513242292
 H          1.3263424422       -4.4850829961       -3.2914464214
 H          2.6510298954       -3.6686525410       -2.5473742061
 C          0.9487648506        3.8184231249        1.4207310342
 O          1.4231945010        2.7033279317        1.6048396440
 N         -0.1093783365        4.0224416385        0.6062004043
 H         -0.3800176255        3.2639684176       -0.0173334112
 H         -0.4128690973        4.9536084285        0.3852737369
 N          1.4465499406        4.9166482223        2.0446481115
 H          0.9957622321        5.8114500220        1.9910144867
 H          2.1649860070        4.7900486204        2.7346822984
 C          0.5889252660        1.8154549152       -1.9343378254
 O         -0.4081304663        1.8797999301       -1.2119050408
 N          1.2099816994        0.6650906181       -2.2285636574
 H          0.9576532618       -0.2134939721       -1.7853066810
 H          2.0548513946        0.6668910632       -2.7706444490
 N          1.1238126616        2.9383570501       -2.4795004825
 H          1.8823681743        2.8996228733       -3.1350654621
 H          0.6310175815        3.8073133781       -2.3805327754
 C         -3.0459386635       -0.7085539163       -0.8603833992
 O         -2.0695251690       -1.4290468016       -0.6252129176
 N         -2.9102990920        0.5960571766       -1.1250235330
 H         -1.9787417836        1.0068494118       -1.1571066132
 H         -3.7008076897        1.1718302979       -1.3488754176
 N         -4.2988769503       -1.2197019081       -0.8662064676
 H         -5.1114387744       -0.6418914231       -0.9784265606
 H         -4.4294176524       -2.1763891861       -0.5887478102
