 xtb: 6.6.1 (unknown-commit)
          01102418263D

 53 48  0     0  0            999 V2000
   -1.3683   -2.8325    1.6146 O   0  0  0  0  0  0  0  0  0  0  0  0
    0.0318   -2.8950    1.6192 C   0  0  0  0  0  0  0  0  0  0  0  0
    0.3073   -3.9107    1.9269 H   0  0  0  0  0  0  0  0  0  0  0  0
    0.4549   -2.7130    0.6304 H   0  0  0  0  0  0  0  0  0  0  0  0
    0.6392   -1.9391    2.6643 C   0  0  0  0  0  0  0  0  0  0  0  0
    1.5905   -2.3439    3.0135 H   0  0  0  0  0  0  0  0  0  0  0  0
   -0.0605   -1.9149    3.5034 H   0  0  0  0  0  0  0  0  0  0  0  0
    0.8806   -0.5401    2.2219 N   0  0  0  0  0  0  0  0  0  0  0  0
    1.1855    0.2773    3.4095 C   0  0  0  0  0  0  0  0  0  0  0  0
    0.3324    0.2943    4.0848 H   0  0  0  0  0  0  0  0  0  0  0  0
    1.4067    1.2940    3.0822 H   0  0  0  0  0  0  0  0  0  0  0  0
    2.0468   -0.1287    3.9362 H   0  0  0  0  0  0  0  0  0  0  0  0
   -0.2975    0.0292    1.5501 C   0  0  0  0  0  0  0  0  0  0  0  0
   -1.1720   -0.0610    2.1906 H   0  0  0  0  0  0  0  0  0  0  0  0
   -0.4906   -0.4840    0.6106 H   0  0  0  0  0  0  0  0  0  0  0  0
   -0.1003    1.0785    1.3352 H   0  0  0  0  0  0  0  0  0  0  0  0
    2.0268   -0.4577    1.3012 C   0  0  0  0  0  0  0  0  0  0  0  0
    2.9248   -0.8309    1.7889 H   0  0  0  0  0  0  0  0  0  0  0  0
    2.1720    0.5876    1.0328 H   0  0  0  0  0  0  0  0  0  0  0  0
    1.8400   -1.0377    0.3998 H   0  0  0  0  0  0  0  0  0  0  0  0
   -1.6803   -2.3562    0.8224 H   0  0  0  0  0  0  0  0  0  0  0  0
    0.8311   -2.8939   -2.0618 C   0  0  0  0  0  0  0  0  0  0  0  0
    1.2681   -1.9979   -1.3378 O   0  0  0  0  0  0  0  0  0  0  0  0
   -0.4833   -3.0266   -2.3087 N   0  0  0  0  0  0  0  0  0  0  0  0
   -1.1247   -2.4513   -1.7689 H   0  0  0  0  0  0  0  0  0  0  0  0
   -0.8464   -3.8211   -2.8026 H   0  0  0  0  0  0  0  0  0  0  0  0
    1.6597   -3.7883   -2.6513 N   0  0  0  0  0  0  0  0  0  0  0  0
    1.3263   -4.4851   -3.2914 H   0  0  0  0  0  0  0  0  0  0  0  0
    2.6510   -3.6687   -2.5474 H   0  0  0  0  0  0  0  0  0  0  0  0
    0.9488    3.8184    1.4207 C   0  0  0  0  0  0  0  0  0  0  0  0
    1.4232    2.7033    1.6048 O   0  0  0  0  0  0  0  0  0  0  0  0
   -0.1094    4.0224    0.6062 N   0  0  0  0  0  0  0  0  0  0  0  0
   -0.3800    3.2640   -0.0173 H   0  0  0  0  0  0  0  0  0  0  0  0
   -0.4128    4.9536    0.3853 H   0  0  0  0  0  0  0  0  0  0  0  0
    1.4466    4.9166    2.0446 N   0  0  0  0  0  0  0  0  0  0  0  0
    0.9958    5.8114    1.9910 H   0  0  0  0  0  0  0  0  0  0  0  0
    2.1650    4.7900    2.7347 H   0  0  0  0  0  0  0  0  0  0  0  0
    0.5889    1.8154   -1.9343 C   0  0  0  0  0  0  0  0  0  0  0  0
   -0.4081    1.8798   -1.2119 O   0  0  0  0  0  0  0  0  0  0  0  0
    1.2100    0.6651   -2.2286 N   0  0  0  0  0  0  0  0  0  0  0  0
    0.9576   -0.2135   -1.7853 H   0  0  0  0  0  0  0  0  0  0  0  0
    2.0548    0.6669   -2.7707 H   0  0  0  0  0  0  0  0  0  0  0  0
    1.1238    2.9383   -2.4795 N   0  0  0  0  0  0  0  0  0  0  0  0
    1.8824    2.8996   -3.1351 H   0  0  0  0  0  0  0  0  0  0  0  0
    0.6310    3.8073   -2.3805 H   0  0  0  0  0  0  0  0  0  0  0  0
   -3.0459   -0.7085   -0.8604 C   0  0  0  0  0  0  0  0  0  0  0  0
   -2.0695   -1.4290   -0.6252 O   0  0  0  0  0  0  0  0  0  0  0  0
   -2.9103    0.5961   -1.1250 N   0  0  0  0  0  0  0  0  0  0  0  0
   -1.9787    1.0069   -1.1571 H   0  0  0  0  0  0  0  0  0  0  0  0
   -3.7008    1.1718   -1.3489 H   0  0  0  0  0  0  0  0  0  0  0  0
   -4.2989   -1.2197   -0.8662 N   0  0  0  0  0  0  0  0  0  0  0  0
   -5.1114   -0.6419   -0.9784 H   0  0  0  0  0  0  0  0  0  0  0  0
   -4.4294   -2.1764   -0.5887 H   0  0  0  0  0  0  0  0  0  0  0  0
  1  2  1  0  0  0  0
  2  3  1  0  0  0  0
  2  4  1  0  0  0  0
  2  5  1  0  0  0  0
  5  6  1  0  0  0  0
  5  7  1  0  0  0  0
  5  8  1  0  0  0  0
  8  9  1  0  0  0  0
  9 10  1  0  0  0  0
  9 11  1  0  0  0  0
  9 12  1  0  0  0  0
  8 13  1  0  0  0  0
 13 14  1  0  0  0  0
 13 15  1  0  0  0  0
 13 16  1  0  0  0  0
  8 17  1  0  0  0  0
 17 18  1  0  0  0  0
 17 19  1  0  0  0  0
 17 20  1  0  0  0  0
  1 21  1  0  0  0  0
 22 23  4  0  0  0  0
 22 24  4  0  0  0  0
 24 25  1  0  0  0  0
 24 26  1  0  0  0  0
 22 27  4  0  0  0  0
 27 28  1  0  0  0  0
 27 29  1  0  0  0  0
 30 31  2  0  0  0  0
 30 32  4  0  0  0  0
 32 33  1  0  0  0  0
 32 34  1  0  0  0  0
 30 35  1  0  0  0  0
 35 36  1  0  0  0  0
 35 37  1  0  0  0  0
 38 39  4  0  0  0  0
 38 40  4  0  0  0  0
 40 41  1  0  0  0  0
 40 42  1  0  0  0  0
 38 43  4  0  0  0  0
 43 44  1  0  0  0  0
 43 45  1  0  0  0  0
 46 47  4  0  0  0  0
 46 48  4  0  0  0  0
 48 49  1  0  0  0  0
 48 50  1  0  0  0  0
 46 51  4  0  0  0  0
 51 52  1  0  0  0  0
 51 53  1  0  0  0  0
M  CHG  1   1   1
M  END
