  53

 O          1.2343547275       -1.0939167811        0.6057646533
 C          1.1714558320       -1.5084026721       -0.7326755843
 H          1.8889693259       -2.3281043528       -0.8222370503
 H          0.1655848897       -1.8824727654       -0.9653224749
 C          1.5522496052       -0.3205463265       -1.6281547701
 H          2.4806361227        0.0937155748       -1.2230403793
 H          0.7595069306        0.4307655155       -1.5764193670
 N          1.8050343902       -0.6057239681       -3.0627943935
 C          2.8472142897       -1.6322484300       -3.2227002084
 H          3.1529642157       -1.6878992546       -4.2655904510
 H          2.4759647479       -2.6074202016       -2.9183834506
 H          3.7055936895       -1.3570587556       -2.6077971280
 C          2.2876862200        0.6494355351       -3.6663143877
 H          3.2130766977        0.9482020450       -3.1781214262
 H          1.5274663856        1.4180544700       -3.5296092436
 H          2.4695768188        0.5075267719       -4.7295656147
 C          0.5605073049       -1.0093569930       -3.7332803482
 H          0.1764370268       -1.9272723420       -3.2953077863
 H          0.7446612584       -1.1741200790       -4.7932265309
 H         -0.1726459158       -0.2118770291       -3.6133158125
 H          0.5567765428       -0.3753224023        0.7163586761
 C          4.9016579951       -0.2231488660        0.0815541011
 O          4.5046656561       -0.1319109947       -1.0750796591
 N          4.0696667554       -0.4432221048        1.1224493547
 H          3.0892772589       -0.6488954443        0.9629970140
 H          4.4323346805       -0.5989876884        2.0450005422
 N          6.2202842718       -0.1171578617        0.3883764114
 H          6.5394217088       -0.0488993165        1.3374711964
 H          6.8499537943        0.1678526235       -0.3405881068
 C         -0.9831157924        2.7530414179       -2.2927097506
 O         -0.4371144719        1.7864501415       -2.8137747599
 N         -1.1783685224        3.9106215364       -2.9813502381
 H         -1.0121234064        3.9011545092       -3.9722673244
 H         -1.7621651776        4.6423563846       -2.6182770907
 N         -1.4227261995        2.7393117844       -1.0171272794
 H         -1.6797384299        3.6020603882       -0.5707776704
 H         -1.1412287738        1.9619439958       -0.4148164521
 C         -4.9360098587       -1.3488595012        4.3346422764
 O         -4.1310671812       -1.0019152149        3.4803891741
 N         -6.2734078737       -1.3110268219        4.1221920070
 H         -6.6017194865       -1.1109604082        3.1940797957
 H         -6.9240097353       -1.7104916674        4.7738095758
 N         -4.5471688264       -1.7938757477        5.5538981482
 H         -5.2078062613       -1.9641041214        6.2900703505
 H         -3.5764828423       -1.7209727268        5.8018112118
 C         -1.7029061919        0.1767880145        1.4558277755
 O         -0.8062536369        0.6044086341        0.7097870490
 N         -2.9361308817        0.7098994203        1.4769007358
 H         -3.1781189480        1.4445930190        0.8379860970
 H         -3.6316482698        0.3059952216        2.0867135168
 N         -1.5050001653       -0.8467808095        2.3011917905
 H         -2.2730099065       -1.1572711035        2.8791397023
 H         -0.6111289444       -1.3041359468        2.3364576118
