 xtb: 6.6.1 (unknown-commit)
          01102415383D

 53 48  0     0  0            999 V2000
   -1.6571   -0.9904   -2.3273 O   0  0  0  0  0  0  0  0  0  0  0  0
   -0.3317   -0.5635   -2.1660 C   0  0  0  0  0  0  0  0  0  0  0  0
    0.1421   -0.6668   -3.1452 H   0  0  0  0  0  0  0  0  0  0  0  0
   -0.2995    0.5007   -1.8914 H   0  0  0  0  0  0  0  0  0  0  0  0
    0.4271   -1.3087   -1.0666 C   0  0  0  0  0  0  0  0  0  0  0  0
   -0.1925   -1.2757   -0.1699 H   0  0  0  0  0  0  0  0  0  0  0  0
    1.3739   -0.8051   -0.8579 H   0  0  0  0  0  0  0  0  0  0  0  0
    0.7511   -2.7392   -1.3276 N   0  0  0  0  0  0  0  0  0  0  0  0
   -0.4510   -3.5008   -1.6976 C   0  0  0  0  0  0  0  0  0  0  0  0
   -1.2064   -3.3893   -0.9218 H   0  0  0  0  0  0  0  0  0  0  0  0
   -0.2032   -4.5547   -1.8108 H   0  0  0  0  0  0  0  0  0  0  0  0
   -0.8678   -3.1241   -2.6291 H   0  0  0  0  0  0  0  0  0  0  0  0
    1.3141   -3.2899   -0.0821 C   0  0  0  0  0  0  0  0  0  0  0  0
    0.5857   -3.2149    0.7229 H   0  0  0  0  0  0  0  0  0  0  0  0
    2.1997   -2.7110    0.1810 H   0  0  0  0  0  0  0  0  0  0  0  0
    1.5895   -4.3329   -0.2245 H   0  0  0  0  0  0  0  0  0  0  0  0
    1.7709   -2.8428   -2.3825 C   0  0  0  0  0  0  0  0  0  0  0  0
    2.6482   -2.2741   -2.0757 H   0  0  0  0  0  0  0  0  0  0  0  0
    1.3887   -2.4469   -3.3198 H   0  0  0  0  0  0  0  0  0  0  0  0
    2.0491   -3.8844   -2.5308 H   0  0  0  0  0  0  0  0  0  0  0  0
   -2.0915   -0.9999   -1.4595 H   0  0  0  0  0  0  0  0  0  0  0  0
    3.9752   -0.4497    0.5773 C   0  0  0  0  0  0  0  0  0  0  0  0
    3.3929   -1.0666   -0.3110 O   0  0  0  0  0  0  0  0  0  0  0  0
    5.3319   -0.4264    0.6461 N   0  0  0  0  0  0  0  0  0  0  0  0
    5.8493   -0.8097   -0.1250 H   0  0  0  0  0  0  0  0  0  0  0  0
    5.8182    0.1849    1.2766 H   0  0  0  0  0  0  0  0  0  0  0  0
    3.3182    0.2314    1.5369 N   0  0  0  0  0  0  0  0  0  0  0  0
    3.8177    0.5945    2.3289 H   0  0  0  0  0  0  0  0  0  0  0  0
    2.3021    0.1449    1.6125 H   0  0  0  0  0  0  0  0  0  0  0  0
   -2.1071    4.8844   -0.6536 C   0  0  0  0  0  0  0  0  0  0  0  0
   -1.4315    3.9647   -0.2113 O   0  0  0  0  0  0  0  0  0  0  0  0
   -3.1697    4.6713   -1.4671 N   0  0  0  0  0  0  0  0  0  0  0  0
   -3.3316    3.7406   -1.8090 H   0  0  0  0  0  0  0  0  0  0  0  0
   -3.6492    5.4279   -1.9198 H   0  0  0  0  0  0  0  0  0  0  0  0
   -1.8430    6.1797   -0.3597 N   0  0  0  0  0  0  0  0  0  0  0  0
   -2.4603    6.9228   -0.6316 H   0  0  0  0  0  0  0  0  0  0  0  0
   -1.1373    6.3802    0.3262 H   0  0  0  0  0  0  0  0  0  0  0  0
   -2.2307   -2.0149    1.5841 C   0  0  0  0  0  0  0  0  0  0  0  0
   -2.3059   -1.4512    0.4896 O   0  0  0  0  0  0  0  0  0  0  0  0
   -3.1942   -2.8738    1.9957 N   0  0  0  0  0  0  0  0  0  0  0  0
   -4.0356   -2.9362    1.4494 H   0  0  0  0  0  0  0  0  0  0  0  0
   -3.2111   -3.2440    2.9287 H   0  0  0  0  0  0  0  0  0  0  0  0
   -1.1401   -1.8938    2.3684 N   0  0  0  0  0  0  0  0  0  0  0  0
   -1.1664   -2.2289    3.3156 H   0  0  0  0  0  0  0  0  0  0  0  0
   -0.4886   -1.1208    2.1670 H   0  0  0  0  0  0  0  0  0  0  0  0
   -0.0191    1.2421    1.2005 C   0  0  0  0  0  0  0  0  0  0  0  0
    0.5088    0.2253    1.6875 O   0  0  0  0  0  0  0  0  0  0  0  0
   -1.2534    1.2344    0.6814 N   0  0  0  0  0  0  0  0  0  0  0  0
   -1.7823    0.3734    0.6280 H   0  0  0  0  0  0  0  0  0  0  0  0
   -1.6188    2.0925    0.2940 H   0  0  0  0  0  0  0  0  0  0  0  0
    0.6232    2.4225    1.1470 N   0  0  0  0  0  0  0  0  0  0  0  0
    0.1555    3.2153    0.7341 H   0  0  0  0  0  0  0  0  0  0  0  0
    1.5481    2.5123    1.5242 H   0  0  0  0  0  0  0  0  0  0  0  0
  1  2  1  0  0  0  0
  2  3  1  0  0  0  0
  2  4  1  0  0  0  0
  2  5  1  0  0  0  0
  5  6  1  0  0  0  0
  5  7  1  0  0  0  0
  5  8  1  0  0  0  0
  8  9  1  0  0  0  0
  9 10  1  0  0  0  0
  9 11  1  0  0  0  0
  9 12  1  0  0  0  0
  8 13  1  0  0  0  0
 13 14  1  0  0  0  0
 13 15  1  0  0  0  0
 13 16  1  0  0  0  0
  8 17  1  0  0  0  0
 17 18  1  0  0  0  0
 17 19  1  0  0  0  0
 17 20  1  0  0  0  0
  1 21  1  0  0  0  0
 22 23  2  0  0  0  0
 22 24  1  0  0  0  0
 24 25  1  0  0  0  0
 24 26  1  0  0  0  0
 22 27  4  0  0  0  0
 27 28  1  0  0  0  0
 27 29  1  0  0  0  0
 30 31  2  0  0  0  0
 30 32  4  0  0  0  0
 32 33  1  0  0  0  0
 32 34  1  0  0  0  0
 30 35  4  0  0  0  0
 35 36  1  0  0  0  0
 35 37  1  0  0  0  0
 38 39  4  0  0  0  0
 38 40  4  0  0  0  0
 40 41  1  0  0  0  0
 40 42  1  0  0  0  0
 38 43  4  0  0  0  0
 43 44  1  0  0  0  0
 43 45  1  0  0  0  0
 46 47  4  0  0  0  0
 46 48  4  0  0  0  0
 48 49  1  0  0  0  0
 48 50  1  0  0  0  0
 46 51  4  0  0  0  0
 51 52  1  0  0  0  0
 51 53  1  0  0  0  0
M  CHG  1   1   1
M  END
