  53

 O          2.6010591443       -2.1882452883        0.1505710194
 C          1.6506978740       -2.7870645461        0.9817694343
 H          1.4395942844       -3.7713133219        0.5551276746
 H          2.0620204948       -2.9424289072        1.9892088525
 C          0.3654659727       -1.9668536004        1.1636764863
 H          0.6348487548       -0.9481428173        1.4651664063
 H         -0.2164656289       -2.4247068569        1.9659603859
 N         -0.5187460404       -1.8469323173       -0.0260783408
 C          0.1633282722       -1.1423166132       -1.1243355997
 H          0.4458819613       -0.1479983370       -0.7924006677
 H         -0.5288743345       -1.0582964892       -1.9607521575
 H          1.0565498897       -1.6860158930       -1.4218954977
 C         -1.6961893929       -1.0532259152        0.3683192484
 H         -1.3633652141       -0.0898904206        0.7466686210
 H         -2.2605805365       -1.5727246580        1.1391493220
 H         -2.3231482012       -0.9039846509       -0.5113862386
 C         -0.9817597792       -3.1507733246       -0.5234966926
 H         -0.1523509034       -3.7205094135       -0.9349029147
 H         -1.7110089134       -2.9723265870       -1.3132922007
 H         -1.4477346728       -3.7186039416        0.2795974910
 H          2.9167093601       -1.3605200945        0.5867573704
 C          4.9037474151       -0.4962961885        1.7787493378
 O          3.7426299211       -0.1686652297        1.5317499071
 N          5.7277894338        0.2988475090        2.4946322121
 H          5.3476431780        1.1270328629        2.9179620487
 H          6.6420780670       -0.0015532261        2.7794986795
 N          5.4161840355       -1.6666837821        1.3457011424
 H          6.3840344631       -1.9019691074        1.4677946591
 H          4.8552002180       -2.2342489430        0.7300838525
 C          0.8991095810        1.9440862944        0.5304220801
 O          0.2756881512        1.2106359256        1.3078360358
 N          2.2369960689        2.0960979747        0.6257627545
 H          2.7503104987        1.4185000621        1.1776604777
 H          2.7415622883        2.5787635139       -0.0965728525
 N          0.2657077457        2.6064037596       -0.4565184832
 H          0.7405653865        3.2821403476       -1.0259662253
 H         -0.7504370712        2.5324862007       -0.5201013666
 C         -3.2490365999       -0.3668880784       -3.2050891937
 O         -2.6172723232       -1.1613581208       -2.5163946934
 N         -3.6961221253       -0.7064441286       -4.4430437659
 H         -3.6179210516       -1.6680016619       -4.7232864482
 H         -4.3367671990       -0.1235249647       -4.9503398943
 N         -3.5428054677        0.8844649319       -2.7949500578
 H         -3.9439370507        1.5435239482       -3.4375905970
 H         -3.1204228377        1.2610173958       -1.9511726432
 C         -3.0236576043        2.3528880493        0.6802385609
 O         -2.5254999834        2.1858982740       -0.4354994855
 N         -2.3117932439        2.1960269879        1.8074792196
 H         -1.3398306542        1.8872125151        1.7422311865
 H         -2.7181309308        2.3396187695        2.7131311425
 N         -4.3327953337        2.6747281816        0.8221973892
 H         -4.7233358869        2.9222776215        1.7128669307
 H         -4.8629842394        2.8923492733       -0.0025271617
