 xtb: 6.6.1 (unknown-commit)
          01102415413D

 53 48  0     0  0            999 V2000
    0.8228   -1.0738   -1.3926 O   0  0  0  0  0  0  0  0  0  0  0  0
    1.0136   -2.3243   -0.8065 C   0  0  0  0  0  0  0  0  0  0  0  0
    0.8738   -3.0664   -1.5982 H   0  0  0  0  0  0  0  0  0  0  0  0
    2.0428   -2.4292   -0.4334 H   0  0  0  0  0  0  0  0  0  0  0  0
    0.0955   -2.6151    0.3913 C   0  0  0  0  0  0  0  0  0  0  0  0
    0.2907   -1.8921    1.1889 H   0  0  0  0  0  0  0  0  0  0  0  0
    0.3372   -3.6158    0.7551 H   0  0  0  0  0  0  0  0  0  0  0  0
   -1.3670   -2.5577    0.1264 N   0  0  0  0  0  0  0  0  0  0  0  0
   -2.0686   -3.1046    1.3008 C   0  0  0  0  0  0  0  0  0  0  0  0
   -1.7867   -2.5251    2.1784 H   0  0  0  0  0  0  0  0  0  0  0  0
   -1.8017   -4.1489    1.4490 H   0  0  0  0  0  0  0  0  0  0  0  0
   -3.1410   -3.0276    1.1304 H   0  0  0  0  0  0  0  0  0  0  0  0
   -1.7503   -3.3294   -1.0641 C   0  0  0  0  0  0  0  0  0  0  0  0
   -2.8378   -3.3282   -1.1347 H   0  0  0  0  0  0  0  0  0  0  0  0
   -1.3907   -4.3535   -0.9817 H   0  0  0  0  0  0  0  0  0  0  0  0
   -1.3364   -2.8678   -1.9571 H   0  0  0  0  0  0  0  0  0  0  0  0
   -1.8051   -1.1611   -0.0462 C   0  0  0  0  0  0  0  0  0  0  0  0
   -1.2925   -0.7173   -0.8960 H   0  0  0  0  0  0  0  0  0  0  0  0
   -1.5617   -0.6052    0.8578 H   0  0  0  0  0  0  0  0  0  0  0  0
   -2.8803   -1.1545   -0.2126 H   0  0  0  0  0  0  0  0  0  0  0  0
    1.0549   -0.3807   -0.7195 H   0  0  0  0  0  0  0  0  0  0  0  0
    4.7597    4.7741   -2.5030 C   0  0  0  0  0  0  0  0  0  0  0  0
    3.9897    4.0503   -1.8864 O   0  0  0  0  0  0  0  0  0  0  0  0
    4.8718    6.0984   -2.2392 N   0  0  0  0  0  0  0  0  0  0  0  0
    4.2106    6.5133   -1.6068 H   0  0  0  0  0  0  0  0  0  0  0  0
    5.4048    6.7114   -2.8287 H   0  0  0  0  0  0  0  0  0  0  0  0
    5.5571    4.3030   -3.4925 N   0  0  0  0  0  0  0  0  0  0  0  0
    6.2703    4.8711   -3.9121 H   0  0  0  0  0  0  0  0  0  0  0  0
    5.6020    3.3101   -3.6377 H   0  0  0  0  0  0  0  0  0  0  0  0
    2.2500    1.6678   -0.2417 C   0  0  0  0  0  0  0  0  0  0  0  0
    1.5661    0.8106    0.3402 O   0  0  0  0  0  0  0  0  0  0  0  0
    2.6959    2.7756    0.3784 N   0  0  0  0  0  0  0  0  0  0  0  0
    2.3921    2.9851    1.3111 H   0  0  0  0  0  0  0  0  0  0  0  0
    3.1908    3.4684   -0.1635 H   0  0  0  0  0  0  0  0  0  0  0  0
    2.6310    1.5344   -1.5217 N   0  0  0  0  0  0  0  0  0  0  0  0
    3.1305    2.2956   -1.9600 H   0  0  0  0  0  0  0  0  0  0  0  0
    2.2877    0.7609   -2.0644 H   0  0  0  0  0  0  0  0  0  0  0  0
   -5.9191   -2.4710   -0.4185 C   0  0  0  0  0  0  0  0  0  0  0  0
   -4.7024   -2.5646   -0.3445 O   0  0  0  0  0  0  0  0  0  0  0  0
   -6.6489   -3.1968   -1.2997 N   0  0  0  0  0  0  0  0  0  0  0  0
   -6.1636   -3.7537   -1.9798 H   0  0  0  0  0  0  0  0  0  0  0  0
   -7.6309   -3.0396   -1.4334 H   0  0  0  0  0  0  0  0  0  0  0  0
   -6.6276   -1.6331    0.3774 N   0  0  0  0  0  0  0  0  0  0  0  0
   -7.6309   -1.6377    0.3944 H   0  0  0  0  0  0  0  0  0  0  0  0
   -6.1450   -1.1518    1.1150 H   0  0  0  0  0  0  0  0  0  0  0  0
    0.0834   -0.1456    3.5801 C   0  0  0  0  0  0  0  0  0  0  0  0
   -0.5927   -0.8701    2.8591 O   0  0  0  0  0  0  0  0  0  0  0  0
    0.9377    0.7742    3.0884 N   0  0  0  0  0  0  0  0  0  0  0  0
    1.1352    0.7736    2.0864 H   0  0  0  0  0  0  0  0  0  0  0  0
    1.5873    1.2346    3.7002 H   0  0  0  0  0  0  0  0  0  0  0  0
    0.0144   -0.2333    4.9377 N   0  0  0  0  0  0  0  0  0  0  0  0
    0.4301    0.4643    5.5281 H   0  0  0  0  0  0  0  0  0  0  0  0
   -0.7173   -0.7972    5.3327 H   0  0  0  0  0  0  0  0  0  0  0  0
  1  2  1  0  0  0  0
  2  3  1  0  0  0  0
  2  4  1  0  0  0  0
  2  5  1  0  0  0  0
  5  6  1  0  0  0  0
  5  7  1  0  0  0  0
  5  8  1  0  0  0  0
  8  9  1  0  0  0  0
  9 10  1  0  0  0  0
  9 11  1  0  0  0  0
  9 12  1  0  0  0  0
  8 13  1  0  0  0  0
 13 14  1  0  0  0  0
 13 15  1  0  0  0  0
 13 16  1  0  0  0  0
  8 17  1  0  0  0  0
 17 18  1  0  0  0  0
 17 19  1  0  0  0  0
 17 20  1  0  0  0  0
  1 21  1  0  0  0  0
 22 23  2  0  0  0  0
 22 24  4  0  0  0  0
 24 25  1  0  0  0  0
 24 26  1  0  0  0  0
 22 27  4  0  0  0  0
 27 28  1  0  0  0  0
 27 29  1  0  0  0  0
 30 31  4  0  0  0  0
 30 32  4  0  0  0  0
 32 33  1  0  0  0  0
 32 34  1  0  0  0  0
 30 35  4  0  0  0  0
 35 36  1  0  0  0  0
 35 37  1  0  0  0  0
 38 39  2  0  0  0  0
 38 40  4  0  0  0  0
 40 41  1  0  0  0  0
 40 42  1  0  0  0  0
 38 43  4  0  0  0  0
 43 44  1  0  0  0  0
 43 45  1  0  0  0  0
 46 47  2  0  0  0  0
 46 48  4  0  0  0  0
 48 49  1  0  0  0  0
 48 50  1  0  0  0  0
 46 51  1  0  0  0  0
 51 52  1  0  0  0  0
 51 53  1  0  0  0  0
M  CHG  1   1   1
M  END
