 xtb: 6.6.1 (unknown-commit)
          01102415383D

 53 48  0     0  0            999 V2000
    2.0023   -1.6776   -2.0360 O   0  0  0  0  0  0  0  0  0  0  0  0
    0.6642   -2.0116   -2.2811 C   0  0  0  0  0  0  0  0  0  0  0  0
    0.6399   -2.4962   -3.2600 H   0  0  0  0  0  0  0  0  0  0  0  0
    0.3100   -2.7448   -1.5422 H   0  0  0  0  0  0  0  0  0  0  0  0
   -0.3076   -0.8313   -2.2026 C   0  0  0  0  0  0  0  0  0  0  0  0
   -0.2175   -0.3574   -1.2218 H   0  0  0  0  0  0  0  0  0  0  0  0
   -1.3287   -1.2070   -2.3101 H   0  0  0  0  0  0  0  0  0  0  0  0
   -0.1426    0.2367   -3.2285 N   0  0  0  0  0  0  0  0  0  0  0  0
    1.1831    0.8646   -3.1263 C   0  0  0  0  0  0  0  0  0  0  0  0
    1.3018    1.2984   -2.1351 H   0  0  0  0  0  0  0  0  0  0  0  0
    1.2824    1.6488   -3.8748 H   0  0  0  0  0  0  0  0  0  0  0  0
    1.9632    0.1195   -3.2727 H   0  0  0  0  0  0  0  0  0  0  0  0
   -1.1813    1.2535   -2.9819 C   0  0  0  0  0  0  0  0  0  0  0  0
   -2.1586    0.7959   -3.1339 H   0  0  0  0  0  0  0  0  0  0  0  0
   -1.0540    2.0918   -3.6628 H   0  0  0  0  0  0  0  0  0  0  0  0
   -1.1250    1.5978   -1.9511 H   0  0  0  0  0  0  0  0  0  0  0  0
   -0.3459   -0.3124   -4.5774 C   0  0  0  0  0  0  0  0  0  0  0  0
   -1.3068   -0.8244   -4.6077 H   0  0  0  0  0  0  0  0  0  0  0  0
    0.4499   -1.0083   -4.8309 H   0  0  0  0  0  0  0  0  0  0  0  0
   -0.3486    0.4943   -5.3082 H   0  0  0  0  0  0  0  0  0  0  0  0
    2.0449   -1.2352   -1.1530 H   0  0  0  0  0  0  0  0  0  0  0  0
    2.6833   -1.4243    1.2011 C   0  0  0  0  0  0  0  0  0  0  0  0
    2.0603   -0.6578    0.4558 O   0  0  0  0  0  0  0  0  0  0  0  0
    2.7442   -1.2488    2.5302 N   0  0  0  0  0  0  0  0  0  0  0  0
    2.2180   -0.5142    2.9906 H   0  0  0  0  0  0  0  0  0  0  0  0
    3.2071   -1.9205    3.1152 H   0  0  0  0  0  0  0  0  0  0  0  0
    3.3394   -2.4935    0.6982 N   0  0  0  0  0  0  0  0  0  0  0  0
    3.9063   -3.0891    1.2732 H   0  0  0  0  0  0  0  0  0  0  0  0
    3.3626   -2.6241   -0.2999 H   0  0  0  0  0  0  0  0  0  0  0  0
   -4.1069   -0.9480   -2.0321 C   0  0  0  0  0  0  0  0  0  0  0  0
   -3.2611   -0.9610   -2.9204 O   0  0  0  0  0  0  0  0  0  0  0  0
   -3.9347   -0.2809   -0.8701 N   0  0  0  0  0  0  0  0  0  0  0  0
   -3.0377    0.1398   -0.6425 H   0  0  0  0  0  0  0  0  0  0  0  0
   -4.6008   -0.3865   -0.1266 H   0  0  0  0  0  0  0  0  0  0  0  0
   -5.2813   -1.6168   -2.1651 N   0  0  0  0  0  0  0  0  0  0  0  0
   -6.0375   -1.4973   -1.5161 H   0  0  0  0  0  0  0  0  0  0  0  0
   -5.4907   -2.0193   -3.0614 H   0  0  0  0  0  0  0  0  0  0  0  0
   -1.1467    1.1038    1.2415 C   0  0  0  0  0  0  0  0  0  0  0  0
   -1.4713    0.9332    0.0661 O   0  0  0  0  0  0  0  0  0  0  0  0
    0.1289    1.0146    1.6626 N   0  0  0  0  0  0  0  0  0  0  0  0
    0.7914    0.5155    1.0708 H   0  0  0  0  0  0  0  0  0  0  0  0
    0.3330    0.9460    2.6545 H   0  0  0  0  0  0  0  0  0  0  0  0
   -2.0650    1.4343    2.1872 N   0  0  0  0  0  0  0  0  0  0  0  0
   -1.7820    1.6649    3.1223 H   0  0  0  0  0  0  0  0  0  0  0  0
   -2.9901    1.6919    1.8937 H   0  0  0  0  0  0  0  0  0  0  0  0
    2.0379    1.8682    4.4595 C   0  0  0  0  0  0  0  0  0  0  0  0
    1.4972    0.8133    4.1399 O   0  0  0  0  0  0  0  0  0  0  0  0
    2.0834    2.9281    3.6178 N   0  0  0  0  0  0  0  0  0  0  0  0
    1.7608    2.7978    2.6738 H   0  0  0  0  0  0  0  0  0  0  0  0
    2.6155    3.7519    3.8310 H   0  0  0  0  0  0  0  0  0  0  0  0
    2.6148    2.0377    5.6687 N   0  0  0  0  0  0  0  0  0  0  0  0
    2.9672    2.9262    5.9747 H   0  0  0  0  0  0  0  0  0  0  0  0
    2.5091    1.3073    6.3507 H   0  0  0  0  0  0  0  0  0  0  0  0
  1  2  1  0  0  0  0
  2  3  1  0  0  0  0
  2  4  1  0  0  0  0
  2  5  1  0  0  0  0
  5  6  1  0  0  0  0
  5  7  1  0  0  0  0
  5  8  1  0  0  0  0
  8  9  1  0  0  0  0
  9 10  1  0  0  0  0
  9 11  1  0  0  0  0
  9 12  1  0  0  0  0
  8 13  1  0  0  0  0
 13 14  1  0  0  0  0
 13 15  1  0  0  0  0
 13 16  1  0  0  0  0
  8 17  1  0  0  0  0
 17 18  1  0  0  0  0
 17 19  1  0  0  0  0
 17 20  1  0  0  0  0
  1 21  1  0  0  0  0
 22 23  4  0  0  0  0
 22 24  4  0  0  0  0
 24 25  1  0  0  0  0
 24 26  1  0  0  0  0
 22 27  4  0  0  0  0
 27 28  1  0  0  0  0
 27 29  1  0  0  0  0
 30 31  2  0  0  0  0
 30 32  4  0  0  0  0
 32 33  1  0  0  0  0
 32 34  1  0  0  0  0
 30 35  1  0  0  0  0
 35 36  1  0  0  0  0
 35 37  1  0  0  0  0
 38 39  2  0  0  0  0
 38 40  4  0  0  0  0
 40 41  1  0  0  0  0
 40 42  1  0  0  0  0
 38 43  1  0  0  0  0
 43 44  1  0  0  0  0
 43 45  1  0  0  0  0
 46 47  2  0  0  0  0
 46 48  4  0  0  0  0
 48 49  1  0  0  0  0
 48 50  1  0  0  0  0
 46 51  4  0  0  0  0
 51 52  1  0  0  0  0
 51 53  1  0  0  0  0
M  CHG  1   1   1
M  END
