  53

 O          3.1814414620       -2.3877379733       -1.0144960658
 C          1.8295123248       -2.7402707982       -0.9555455776
 H          1.2975104801       -2.4260107113       -1.8594692015
 H          1.7930541927       -3.8338918374       -0.9083306043
 C          1.0980212919       -2.2416155786        0.3008861715
 H          1.6487359719       -2.5945013953        1.1750170583
 H          0.1011819001       -2.6876366751        0.2934269867
 N          0.9026825707       -0.7733939297        0.4534644755
 C          0.0083135737       -0.5798376109        1.6091643007
 H         -0.9549845859       -1.0400701796        1.3910070597
 H         -0.1251907038        0.4860875227        1.7801936316
 H          0.4409177338       -1.0340317337        2.4977554774
 C          0.2483407895       -0.2064497489       -0.7361083304
 H          0.9321747040       -0.2145956743       -1.5819315974
 H         -0.0384395057        0.8214684532       -0.5285662804
 H         -0.6453044113       -0.7893092105       -0.9534295836
 C          2.1586374176       -0.0473168281        0.7088458274
 H          2.7441462180        0.0380597310       -0.2028492554
 H          2.7450575930       -0.5623054505        1.4662729521
 H          1.9177202490        0.9545727770        1.0638186130
 H          3.2402741550       -1.4994360632       -1.4315173701
 C          4.0173264720       -0.1521102116       -3.2841702636
 O          3.1779971487       -0.0700399992       -2.3862040262
 N          4.2413792726        0.8710638870       -4.1353783139
 H          3.6977773918        1.7091983753       -4.0365812521
 H          4.9067078873        0.8129588411       -4.8838626527
 N          4.7522266739       -1.2660974379       -3.4748652472
 H          5.4658339438       -1.3211051923       -4.1779365314
 H          4.6413277771       -2.0399698950       -2.8394038630
 C         -0.2263686012        3.2645220752        0.6554520233
 O          0.2258085315        2.6075732089        1.5951392156
 N          0.4716533037        4.2945030254        0.1193427590
 H          1.3108393552        4.5899819400        0.5860658161
 H          0.0712756332        4.9062587212       -0.5681757830
 N         -1.3870504122        2.9341419860        0.0564012450
 H         -1.8107657107        3.5461346922       -0.6174782177
 H         -1.9860068067        2.2460906734        0.5225343821
 C         -3.2731372026       -2.1728258314       -0.1597142072
 O         -2.0566929211       -2.1921211142       -0.0114719824
 N         -3.9203128358       -3.1531316864       -0.8452473885
 H         -3.3959038655       -3.9730197433       -1.0950207435
 H         -4.9212406992       -3.2301602262       -0.8299317946
 N         -4.0506856660       -1.1873103791        0.3387457089
 H         -5.0121908376       -1.1147642259        0.0578188846
 H         -3.6071879418       -0.3529073930        0.7174309420
 C         -2.8561960866        1.2615346991        2.7884961458
 O         -2.9101166264        1.1275483941        1.5626347531
 N         -1.8471640683        1.9096063543        3.3914892984
 H         -1.0557593804        2.2295935409        2.8342893482
 H         -1.7957435459        1.9886819355        4.3902122060
 N         -3.8146182594        0.7416163345        3.5908596423
 H         -3.8314883370        0.9137388937        4.5792013423
 H         -4.6220911366        0.3206038632        3.1677323729
