 xtb: 6.6.1 (unknown-commit)
          01102415423D

 53 48  0     0  0            999 V2000
    3.1814   -2.3878   -1.0145 O   0  0  0  0  0  0  0  0  0  0  0  0
    1.8295   -2.7403   -0.9555 C   0  0  0  0  0  0  0  0  0  0  0  0
    1.2975   -2.4260   -1.8595 H   0  0  0  0  0  0  0  0  0  0  0  0
    1.7930   -3.8339   -0.9083 H   0  0  0  0  0  0  0  0  0  0  0  0
    1.0980   -2.2416    0.3009 C   0  0  0  0  0  0  0  0  0  0  0  0
    1.6487   -2.5945    1.1750 H   0  0  0  0  0  0  0  0  0  0  0  0
    0.1012   -2.6876    0.2934 H   0  0  0  0  0  0  0  0  0  0  0  0
    0.9027   -0.7734    0.4535 N   0  0  0  0  0  0  0  0  0  0  0  0
    0.0083   -0.5798    1.6092 C   0  0  0  0  0  0  0  0  0  0  0  0
   -0.9550   -1.0401    1.3910 H   0  0  0  0  0  0  0  0  0  0  0  0
   -0.1252    0.4861    1.7802 H   0  0  0  0  0  0  0  0  0  0  0  0
    0.4409   -1.0340    2.4978 H   0  0  0  0  0  0  0  0  0  0  0  0
    0.2483   -0.2065   -0.7361 C   0  0  0  0  0  0  0  0  0  0  0  0
    0.9322   -0.2146   -1.5819 H   0  0  0  0  0  0  0  0  0  0  0  0
   -0.0384    0.8215   -0.5286 H   0  0  0  0  0  0  0  0  0  0  0  0
   -0.6453   -0.7893   -0.9534 H   0  0  0  0  0  0  0  0  0  0  0  0
    2.1586   -0.0473    0.7088 C   0  0  0  0  0  0  0  0  0  0  0  0
    2.7441    0.0380   -0.2029 H   0  0  0  0  0  0  0  0  0  0  0  0
    2.7451   -0.5623    1.4663 H   0  0  0  0  0  0  0  0  0  0  0  0
    1.9177    0.9546    1.0638 H   0  0  0  0  0  0  0  0  0  0  0  0
    3.2403   -1.4995   -1.4315 H   0  0  0  0  0  0  0  0  0  0  0  0
    4.0173   -0.1521   -3.2842 C   0  0  0  0  0  0  0  0  0  0  0  0
    3.1780   -0.0701   -2.3862 O   0  0  0  0  0  0  0  0  0  0  0  0
    4.2414    0.8710   -4.1354 N   0  0  0  0  0  0  0  0  0  0  0  0
    3.6978    1.7092   -4.0366 H   0  0  0  0  0  0  0  0  0  0  0  0
    4.9067    0.8129   -4.8839 H   0  0  0  0  0  0  0  0  0  0  0  0
    4.7522   -1.2661   -3.4749 N   0  0  0  0  0  0  0  0  0  0  0  0
    5.4658   -1.3211   -4.1780 H   0  0  0  0  0  0  0  0  0  0  0  0
    4.6413   -2.0400   -2.8394 H   0  0  0  0  0  0  0  0  0  0  0  0
   -0.2263    3.2645    0.6554 C   0  0  0  0  0  0  0  0  0  0  0  0
    0.2258    2.6076    1.5951 O   0  0  0  0  0  0  0  0  0  0  0  0
    0.4717    4.2945    0.1193 N   0  0  0  0  0  0  0  0  0  0  0  0
    1.3109    4.5900    0.5861 H   0  0  0  0  0  0  0  0  0  0  0  0
    0.0713    4.9063   -0.5682 H   0  0  0  0  0  0  0  0  0  0  0  0
   -1.3870    2.9341    0.0564 N   0  0  0  0  0  0  0  0  0  0  0  0
   -1.8107    3.5461   -0.6175 H   0  0  0  0  0  0  0  0  0  0  0  0
   -1.9860    2.2461    0.5225 H   0  0  0  0  0  0  0  0  0  0  0  0
   -3.2731   -2.1728   -0.1597 C   0  0  0  0  0  0  0  0  0  0  0  0
   -2.0567   -2.1921   -0.0115 O   0  0  0  0  0  0  0  0  0  0  0  0
   -3.9203   -3.1531   -0.8452 N   0  0  0  0  0  0  0  0  0  0  0  0
   -3.3959   -3.9730   -1.0950 H   0  0  0  0  0  0  0  0  0  0  0  0
   -4.9213   -3.2301   -0.8299 H   0  0  0  0  0  0  0  0  0  0  0  0
   -4.0507   -1.1873    0.3388 N   0  0  0  0  0  0  0  0  0  0  0  0
   -5.0122   -1.1147    0.0578 H   0  0  0  0  0  0  0  0  0  0  0  0
   -3.6072   -0.3529    0.7174 H   0  0  0  0  0  0  0  0  0  0  0  0
   -2.8562    1.2616    2.7885 C   0  0  0  0  0  0  0  0  0  0  0  0
   -2.9101    1.1276    1.5626 O   0  0  0  0  0  0  0  0  0  0  0  0
   -1.8471    1.9096    3.3915 N   0  0  0  0  0  0  0  0  0  0  0  0
   -1.0557    2.2296    2.8343 H   0  0  0  0  0  0  0  0  0  0  0  0
   -1.7957    1.9887    4.3902 H   0  0  0  0  0  0  0  0  0  0  0  0
   -3.8146    0.7416    3.5909 N   0  0  0  0  0  0  0  0  0  0  0  0
   -3.8315    0.9138    4.5792 H   0  0  0  0  0  0  0  0  0  0  0  0
   -4.6221    0.3206    3.1677 H   0  0  0  0  0  0  0  0  0  0  0  0
  1  2  1  0  0  0  0
  2  3  1  0  0  0  0
  2  4  1  0  0  0  0
  2  5  1  0  0  0  0
  5  6  1  0  0  0  0
  5  7  1  0  0  0  0
  5  8  1  0  0  0  0
  8  9  1  0  0  0  0
  9 10  1  0  0  0  0
  9 11  1  0  0  0  0
  9 12  1  0  0  0  0
  8 13  1  0  0  0  0
 13 14  1  0  0  0  0
 13 15  1  0  0  0  0
 13 16  1  0  0  0  0
  8 17  1  0  0  0  0
 17 18  1  0  0  0  0
 17 19  1  0  0  0  0
 17 20  1  0  0  0  0
  1 21  1  0  0  0  0
 22 23  4  0  0  0  0
 22 24  4  0  0  0  0
 24 25  1  0  0  0  0
 24 26  1  0  0  0  0
 22 27  4  0  0  0  0
 27 28  1  0  0  0  0
 27 29  1  0  0  0  0
 30 31  4  0  0  0  0
 30 32  4  0  0  0  0
 32 33  1  0  0  0  0
 32 34  1  0  0  0  0
 30 35  4  0  0  0  0
 35 36  1  0  0  0  0
 35 37  1  0  0  0  0
 38 39  2  0  0  0  0
 38 40  1  0  0  0  0
 40 41  1  0  0  0  0
 40 42  1  0  0  0  0
 38 43  4  0  0  0  0
 43 44  1  0  0  0  0
 43 45  1  0  0  0  0
 46 47  4  0  0  0  0
 46 48  4  0  0  0  0
 48 49  1  0  0  0  0
 48 50  1  0  0  0  0
 46 51  4  0  0  0  0
 51 52  1  0  0  0  0
 51 53  1  0  0  0  0
M  CHG  1   1   1
M  END
