  53

 O         -0.1420335157       -2.4673061096       -0.2747410242
 C         -0.1490123699       -2.7526780644        1.0904590071
 H         -0.7459703585       -3.6584695650        1.2228168379
 H          0.8704094227       -2.9731852709        1.4441260221
 C         -0.6589328497       -1.5951187998        1.9617562781
 H         -0.0849009482       -0.7041911419        1.6915008647
 H         -0.4635176503       -1.8413988106        3.0076151525
 N         -2.0966584406       -1.2449395485        1.8316473738
 C         -2.4067088543       -0.7871787935        0.4656110983
 H         -1.8313768107        0.1113549414        0.2508117551
 H         -3.4669828756       -0.5442393723        0.4197714283
 H         -2.1632809360       -1.5617644290       -0.2563589909
 C         -2.3841653162       -0.1419233251        2.7666779811
 H         -1.7872152698        0.7278939120        2.5006670893
 H         -2.1709206793       -0.4438534764        3.7893908813
 H         -3.4375961481        0.1236565693        2.6694418816
 C         -2.9765343624       -2.3759467478        2.1609377450
 H         -2.8703705865       -3.1680766402        1.4237797785
 H         -4.0075822493       -2.0248627278        2.1496710810
 H         -2.7395567273       -2.7668053941        3.1490029164
 H          0.3188461756       -1.5988127396       -0.3886613593
 C          6.3713885973       -1.2499789417       -2.8550065543
 O          5.3648675200       -0.9581250090       -2.2214128307
 N          6.3327993133       -2.0724616034       -3.9304931894
 H          5.4374571357       -2.3572701143       -4.2857569980
 H          7.1373946110       -2.2224881122       -4.5113520326
 N          7.5936594883       -0.7697739391       -2.5255451935
 H          8.4304562015       -1.0999693011       -2.9706494210
 H          7.6885657353       -0.2555637714       -1.6678571646
 C         -0.8029756634        2.9236139229        0.2811346613
 O         -1.5586387220        2.1594253346        0.8737367922
 N         -1.1370382724        4.2266702578        0.0700205207
 H         -1.9247387162        4.5932501292        0.5752012706
 H         -0.4567572684        4.8884519951       -0.2586131862
 N          0.3929330849        2.5308657137       -0.1985426301
 H          0.9098581679        3.1336764554       -0.8135947751
 H          0.6261024390        1.5363974646       -0.2048367192
 C          2.3525421489       -0.3573533993       -0.8492945055
 O          1.2476726040       -0.1638532918       -0.3121087261
 N          2.6563098854       -1.5009665979       -1.4778851491
 H          1.9733138401       -2.2348211863       -1.5540108721
 H          3.5779740503       -1.6021868024       -1.8817368355
 N          3.3189874847        0.5796410018       -0.8569356851
 H          4.2203446713        0.3371788667       -1.2419553091
 H          3.2191706468        1.4037440807       -0.2928330405
 C         -5.4051785145        1.4115604573        1.1216792032
 O         -5.0946366075        0.2880856560        1.4987900060
 N         -6.6983133132        1.7431437420        0.8724000561
 H         -7.4072500169        1.0787296564        1.1280518225
 H         -6.9820301293        2.6917444571        0.7081802759
 N         -4.4963949267        2.3938890080        0.9223453809
 H         -4.7782394256        3.2569890334        0.4940983033
 H         -3.5024733722        2.1917777422        0.9605342783
