 xtb: 6.6.1 (unknown-commit)
          01102418253D

 53 48  0     0  0            999 V2000
   -0.4308    1.6747    3.4107 O   0  0  0  0  0  0  0  0  0  0  0  0
   -0.6949    0.3346    3.0973 C   0  0  0  0  0  0  0  0  0  0  0  0
    0.1785   -0.2914    3.3305 H   0  0  0  0  0  0  0  0  0  0  0  0
   -1.5084    0.0174    3.7537 H   0  0  0  0  0  0  0  0  0  0  0  0
   -1.0144    0.0854    1.6217 C   0  0  0  0  0  0  0  0  0  0  0  0
   -1.0920   -0.9928    1.4545 H   0  0  0  0  0  0  0  0  0  0  0  0
   -0.1978    0.4814    1.0125 H   0  0  0  0  0  0  0  0  0  0  0  0
   -2.2779    0.6807    1.1014 N   0  0  0  0  0  0  0  0  0  0  0  0
   -3.4404    0.0785    1.7727 C   0  0  0  0  0  0  0  0  0  0  0  0
   -3.3885   -1.0040    1.6594 H   0  0  0  0  0  0  0  0  0  0  0  0
   -4.3595    0.4425    1.3175 H   0  0  0  0  0  0  0  0  0  0  0  0
   -3.4487    0.3371    2.8284 H   0  0  0  0  0  0  0  0  0  0  0  0
   -2.3563    0.3594   -0.3353 C   0  0  0  0  0  0  0  0  0  0  0  0
   -3.2298    0.8336   -0.7768 H   0  0  0  0  0  0  0  0  0  0  0  0
   -2.4336   -0.7227   -0.4422 H   0  0  0  0  0  0  0  0  0  0  0  0
   -1.4546    0.6988   -0.8408 H   0  0  0  0  0  0  0  0  0  0  0  0
   -2.2844    2.1411    1.2712 C   0  0  0  0  0  0  0  0  0  0  0  0
   -3.1906    2.5619    0.8393 H   0  0  0  0  0  0  0  0  0  0  0  0
   -1.4161    2.5676    0.7713 H   0  0  0  0  0  0  0  0  0  0  0  0
   -2.2346    2.3969    2.3278 H   0  0  0  0  0  0  0  0  0  0  0  0
    0.2341    2.0092    2.7660 H   0  0  0  0  0  0  0  0  0  0  0  0
    0.4599   -2.0727   -3.9306 C   0  0  0  0  0  0  0  0  0  0  0  0
    1.2466   -2.6554   -3.1854 O   0  0  0  0  0  0  0  0  0  0  0  0
    0.1806   -2.5470   -5.1663 N   0  0  0  0  0  0  0  0  0  0  0  0
    0.6137   -3.4050   -5.4568 H   0  0  0  0  0  0  0  0  0  0  0  0
   -0.4907   -2.1154   -5.7739 H   0  0  0  0  0  0  0  0  0  0  0  0
   -0.1863   -0.9507   -3.5502 N   0  0  0  0  0  0  0  0  0  0  0  0
   -0.7289   -0.4198   -4.2063 H   0  0  0  0  0  0  0  0  0  0  0  0
    0.0850   -0.5108   -2.6716 H   0  0  0  0  0  0  0  0  0  0  0  0
    1.8236    3.7855    2.1320 C   0  0  0  0  0  0  0  0  0  0  0  0
    1.2974    2.7864    1.6343 O   0  0  0  0  0  0  0  0  0  0  0  0
    1.5031    4.2131    3.3674 N   0  0  0  0  0  0  0  0  0  0  0  0
    0.8599    3.6706    3.9202 H   0  0  0  0  0  0  0  0  0  0  0  0
    1.9610    4.9964    3.7963 H   0  0  0  0  0  0  0  0  0  0  0  0
    2.7532    4.4992    1.4631 N   0  0  0  0  0  0  0  0  0  0  0  0
    3.1375    5.3505    1.8302 H   0  0  0  0  0  0  0  0  0  0  0  0
    2.9588    4.2563    0.5101 H   0  0  0  0  0  0  0  0  0  0  0  0
    1.9322    0.0995   -0.9558 C   0  0  0  0  0  0  0  0  0  0  0  0
    0.6958    0.1442   -1.0548 O   0  0  0  0  0  0  0  0  0  0  0  0
    2.6536   -0.8497   -1.5663 N   0  0  0  0  0  0  0  0  0  0  0  0
    2.1891   -1.5597   -2.1376 H   0  0  0  0  0  0  0  0  0  0  0  0
    3.6541   -0.8743   -1.4946 H   0  0  0  0  0  0  0  0  0  0  0  0
    2.6036    1.0275   -0.2388 N   0  0  0  0  0  0  0  0  0  0  0  0
    3.5824    0.9069   -0.0498 H   0  0  0  0  0  0  0  0  0  0  0  0
    2.0812    1.6654    0.3534 H   0  0  0  0  0  0  0  0  0  0  0  0
   -1.2364   -3.2148   -0.1854 C   0  0  0  0  0  0  0  0  0  0  0  0
   -2.0364   -2.5594    0.4816 O   0  0  0  0  0  0  0  0  0  0  0  0
   -1.4600   -4.5176   -0.4878 N   0  0  0  0  0  0  0  0  0  0  0  0
   -2.2173   -4.9872   -0.0236 H   0  0  0  0  0  0  0  0  0  0  0  0
   -0.7391   -5.0792   -0.9039 H   0  0  0  0  0  0  0  0  0  0  0  0
   -0.0835   -2.6884   -0.6498 N   0  0  0  0  0  0  0  0  0  0  0  0
    0.4445   -3.1525   -1.3751 H   0  0  0  0  0  0  0  0  0  0  0  0
    0.0286   -1.6826   -0.6314 H   0  0  0  0  0  0  0  0  0  0  0  0
  1  2  1  0  0  0  0
  2  3  1  0  0  0  0
  2  4  1  0  0  0  0
  2  5  1  0  0  0  0
  5  6  1  0  0  0  0
  5  7  1  0  0  0  0
  5  8  1  0  0  0  0
  8  9  1  0  0  0  0
  9 10  1  0  0  0  0
  9 11  1  0  0  0  0
  9 12  1  0  0  0  0
  8 13  1  0  0  0  0
 13 14  1  0  0  0  0
 13 15  1  0  0  0  0
 13 16  1  0  0  0  0
  8 17  1  0  0  0  0
 17 18  1  0  0  0  0
 17 19  1  0  0  0  0
 17 20  1  0  0  0  0
  1 21  1  0  0  0  0
 22 23  2  0  0  0  0
 22 24  4  0  0  0  0
 24 25  1  0  0  0  0
 24 26  1  0  0  0  0
 22 27  4  0  0  0  0
 27 28  1  0  0  0  0
 27 29  1  0  0  0  0
 30 31  4  0  0  0  0
 30 32  4  0  0  0  0
 32 33  1  0  0  0  0
 32 34  1  0  0  0  0
 30 35  4  0  0  0  0
 35 36  1  0  0  0  0
 35 37  1  0  0  0  0
 38 39  4  0  0  0  0
 38 40  4  0  0  0  0
 40 41  1  0  0  0  0
 40 42  1  0  0  0  0
 38 43  4  0  0  0  0
 43 44  1  0  0  0  0
 43 45  1  0  0  0  0
 46 47  2  0  0  0  0
 46 48  4  0  0  0  0
 48 49  1  0  0  0  0
 48 50  1  0  0  0  0
 46 51  4  0  0  0  0
 51 52  1  0  0  0  0
 51 53  1  0  0  0  0
M  CHG  1   1   1
M  END
