53
 xtb: 6.6.1 (unknown-commit)
O            2.91522873076724       -1.02697497240283       -0.34482499116101
C            2.82663674442194        0.19180946202333       -1.02059628965367
H            3.71221688989121        0.78123672380488       -0.75595793113275
H            2.84776178873386        0.04555730501854       -2.11163839407454
C            1.53458966228034        0.97309873035901       -0.72518380698857
H            0.67359108579843        0.34569059910791       -0.96952808907948
H            1.51729030659948        1.86124029113508       -1.36833479996855
N            1.35732241915794        1.42226305823858        0.68196646244596
C            1.08814029238856        0.27026536989288        1.55972017058287
H            0.18530034034478       -0.22535730373339        1.21195365478448
H            0.95310421520201        0.63598109511336        2.57413197891850
H            1.92722882997964       -0.42023126969934        1.51127305915018
C            0.18630925302608        2.31452694862766        0.73789656563645
H           -0.68500645369412        1.76872939670284        0.37045726982158
H            0.34656258669476        3.19940956105741        0.12615250655074
H            0.02590408316232        2.61377827122790        1.77357359170086
C            2.53098810262962        2.14782277169040        1.18987436593499
H            2.78458656289019        2.97185475844248        0.51754055455064
H            3.37709040090350        1.48153717857264        1.28260339283809
H            2.28263277555628        2.55174806067282        2.17208538282848
H            2.21751247778711       -1.59778433666932       -0.72937003287198
C           -0.00317089550145       -2.91929319130941       -0.90899076770130
O            0.81332131575935       -2.21264234305365       -1.50751181985236
N            0.28407843852409       -3.41216687395554        0.32516605892316
H            1.24949530386787       -3.34361453553424        0.63983811453559
H           -0.27426830076373       -4.12526417568279        0.73647783737902
N           -1.19538563490432       -3.22717021344023       -1.43034352297035
H           -1.86679886172246       -3.73540818731603       -0.88979492755339
H           -1.50420334590804       -2.73322574811143       -2.26736495840464
C            0.81384523447686        3.08092468612068        4.93063910448551
O            0.87754953528315        2.61844361974347        3.79968791495672
N            0.08605939336086        4.19929014271271        5.21239837140731
H           -0.29104600415370        4.72547413104370        4.44979388171036
H            0.07657589803248        4.60144938353213        6.12856968007637
N            1.46410380360449        2.50673329428311        5.98321382131746
H            1.38212826388043        2.87371430859466        6.91126619128270
H            1.90062497810256        1.62095535625165        5.84965505266074
C           -1.12788797527877       -1.31000447476481       -4.39969368387408
O           -2.00024990224283       -1.69373248397287       -3.61788212092374
N            0.16130899849248       -1.20682240778629       -4.03661998223293
H            0.43909060372909       -1.56422467684614       -3.12288229850826
H            0.86722033886214       -1.00267687989155       -4.71721578797500
N           -1.44716847796454       -0.91859122798797       -5.65636777080724
H           -0.76194690460090       -0.69065906260035       -6.33977185521939
H           -2.40763002847978       -1.03748147873554       -5.95685158500590
C           -2.70719201541211       -0.36383952454803       -0.20745796278731
O           -1.51376931216876       -0.09034289865972       -0.15756778560826
N           -3.47695643584594       -0.36678842520225        0.92229986563753
H           -3.08073825382948        0.03394877442445        1.75952968958439
H           -4.47575969894418       -0.40157529787863        0.86621664149037
N           -3.34647585791032       -0.67816569913312       -1.34825852023413
H           -4.29745952279793       -1.00810873775857       -1.32168129814627
H           -2.81013142886597       -0.89469302544453       -2.17984457185380
