  53

 O          1.8134236358        1.1452225285        0.7411279971
 C          2.6955149221        1.0146526885       -0.3342279808
 H          2.8917892636        2.0341841251       -0.6787304312
 H          3.6536599872        0.5829973760       -0.0128432931
 C          2.1881836690        0.1384770858       -1.4938034160
 H          2.2081394250       -0.9142987266       -1.1942691156
 H          2.8751781084        0.2817329285       -2.3300814686
 N          0.8031591523        0.4209877561       -1.9578082032
 C         -0.1763595191       -0.1840877637       -1.0373688136
 H          0.0658426989       -1.2336010948       -0.8842174866
 H         -1.1684743777       -0.0794617341       -1.4727313315
 H         -0.1596254424        0.3410618147       -0.0881671754
 C          0.6086729949       -0.1973744671       -3.2791403149
 H         -0.4180808738       -0.0233043599       -3.5981553103
 H          0.7913662246       -1.2679415181       -3.2089039799
 H          1.2884419241        0.2371974167       -4.0098699187
 C          0.5325330904        1.8630668942       -2.0579978484
 H          0.6066667613        2.3195636339       -1.0742166266
 H         -0.4847558550        1.9910013396       -2.4295145099
 H          1.2382748341        2.3341183020       -2.7390441842
 H          1.6498850348        0.2820799807        1.1611728971
 C          2.5747530288       -3.2588277765        0.2151165581
 O          1.7883677820       -2.7346605902       -0.5644215673
 N          2.7990349508       -2.7587725573        1.4522292163
 H          2.1720462984       -2.0351631538        1.7996764321
 H          3.3985335458       -3.2307101365        2.1045771813
 N          3.2775985613       -4.3713072722       -0.1162683541
 H          4.0061799651       -4.7385095169        0.4680361976
 H          3.2096705061       -4.7123713496       -1.0584323468
 C         -3.4044774824        1.6513467184       -2.1796008973
 O         -2.3830139562        1.1819317417       -2.6672038831
 N         -4.5449254454        1.7738484110       -2.9053873957
 H         -4.4993525378        1.5791248300       -3.8898793273
 H         -5.3427868047        2.2768704087       -2.5623124475
 N         -3.4679972576        2.0924198054       -0.9010367125
 H         -4.3601609520        2.3191938223       -0.4986213063
 H         -2.7223280734        1.8632406791       -0.2509892589
 C         -0.3561631940       -1.7042645584        2.1493258022
 O          0.6807512084       -1.0251734533        2.1935967504
 N         -0.3372478789       -3.0265205725        2.4323824548
 H          0.5444574919       -3.4820069476        2.5853003648
 H         -1.1518524781       -3.6004308580        2.3151783009
 N         -1.5424360726       -1.1679638990        1.8421713776
 H         -2.3784413325       -1.7221802499        1.8449919045
 H         -1.6148774622       -0.1672232057        1.6404692764
 C         -0.8733547661        2.2630465643        1.9846436877
 O         -1.5674844198        1.5570390596        1.2462816348
 N         -0.9470449008        3.6134716653        1.9240252774
 H         -1.6754427863        4.0292236534        1.3703744559
 H         -0.4815416184        4.1923322578        2.5992912943
 N         -0.0293899822        1.7384835080        2.8910049988
 H          0.6418754733        2.3293454835        3.3485180967
 H          0.2265158751        0.7605079286        2.7900931387
