 xtb: 6.6.1 (unknown-commit)
          01102415383D

 53 48  0     0  0            999 V2000
    1.8134    1.1452    0.7411 O   0  0  0  0  0  0  0  0  0  0  0  0
    2.6955    1.0146   -0.3342 C   0  0  0  0  0  0  0  0  0  0  0  0
    2.8918    2.0342   -0.6787 H   0  0  0  0  0  0  0  0  0  0  0  0
    3.6537    0.5830   -0.0129 H   0  0  0  0  0  0  0  0  0  0  0  0
    2.1882    0.1385   -1.4938 C   0  0  0  0  0  0  0  0  0  0  0  0
    2.2081   -0.9143   -1.1943 H   0  0  0  0  0  0  0  0  0  0  0  0
    2.8752    0.2817   -2.3301 H   0  0  0  0  0  0  0  0  0  0  0  0
    0.8032    0.4210   -1.9578 N   0  0  0  0  0  0  0  0  0  0  0  0
   -0.1764   -0.1841   -1.0374 C   0  0  0  0  0  0  0  0  0  0  0  0
    0.0658   -1.2336   -0.8842 H   0  0  0  0  0  0  0  0  0  0  0  0
   -1.1685   -0.0795   -1.4727 H   0  0  0  0  0  0  0  0  0  0  0  0
   -0.1596    0.3411   -0.0882 H   0  0  0  0  0  0  0  0  0  0  0  0
    0.6087   -0.1974   -3.2791 C   0  0  0  0  0  0  0  0  0  0  0  0
   -0.4181   -0.0233   -3.5982 H   0  0  0  0  0  0  0  0  0  0  0  0
    0.7913   -1.2680   -3.2089 H   0  0  0  0  0  0  0  0  0  0  0  0
    1.2884    0.2372   -4.0099 H   0  0  0  0  0  0  0  0  0  0  0  0
    0.5325    1.8631   -2.0580 C   0  0  0  0  0  0  0  0  0  0  0  0
    0.6067    2.3196   -1.0742 H   0  0  0  0  0  0  0  0  0  0  0  0
   -0.4848    1.9910   -2.4295 H   0  0  0  0  0  0  0  0  0  0  0  0
    1.2383    2.3341   -2.7391 H   0  0  0  0  0  0  0  0  0  0  0  0
    1.6499    0.2821    1.1612 H   0  0  0  0  0  0  0  0  0  0  0  0
    2.5747   -3.2588    0.2151 C   0  0  0  0  0  0  0  0  0  0  0  0
    1.7884   -2.7347   -0.5644 O   0  0  0  0  0  0  0  0  0  0  0  0
    2.7990   -2.7588    1.4522 N   0  0  0  0  0  0  0  0  0  0  0  0
    2.1720   -2.0352    1.7997 H   0  0  0  0  0  0  0  0  0  0  0  0
    3.3985   -3.2307    2.1046 H   0  0  0  0  0  0  0  0  0  0  0  0
    3.2776   -4.3713   -0.1163 N   0  0  0  0  0  0  0  0  0  0  0  0
    4.0062   -4.7385    0.4680 H   0  0  0  0  0  0  0  0  0  0  0  0
    3.2096   -4.7124   -1.0584 H   0  0  0  0  0  0  0  0  0  0  0  0
   -3.4045    1.6514   -2.1796 C   0  0  0  0  0  0  0  0  0  0  0  0
   -2.3830    1.1819   -2.6672 O   0  0  0  0  0  0  0  0  0  0  0  0
   -4.5449    1.7739   -2.9054 N   0  0  0  0  0  0  0  0  0  0  0  0
   -4.4994    1.5791   -3.8899 H   0  0  0  0  0  0  0  0  0  0  0  0
   -5.3428    2.2769   -2.5623 H   0  0  0  0  0  0  0  0  0  0  0  0
   -3.4680    2.0924   -0.9010 N   0  0  0  0  0  0  0  0  0  0  0  0
   -4.3602    2.3192   -0.4986 H   0  0  0  0  0  0  0  0  0  0  0  0
   -2.7223    1.8633   -0.2510 H   0  0  0  0  0  0  0  0  0  0  0  0
   -0.3562   -1.7043    2.1493 C   0  0  0  0  0  0  0  0  0  0  0  0
    0.6808   -1.0252    2.1936 O   0  0  0  0  0  0  0  0  0  0  0  0
   -0.3373   -3.0265    2.4324 N   0  0  0  0  0  0  0  0  0  0  0  0
    0.5444   -3.4820    2.5853 H   0  0  0  0  0  0  0  0  0  0  0  0
   -1.1519   -3.6004    2.3152 H   0  0  0  0  0  0  0  0  0  0  0  0
   -1.5424   -1.1680    1.8422 N   0  0  0  0  0  0  0  0  0  0  0  0
   -2.3784   -1.7222    1.8450 H   0  0  0  0  0  0  0  0  0  0  0  0
   -1.6149   -0.1672    1.6405 H   0  0  0  0  0  0  0  0  0  0  0  0
   -0.8733    2.2631    1.9846 C   0  0  0  0  0  0  0  0  0  0  0  0
   -1.5675    1.5570    1.2463 O   0  0  0  0  0  0  0  0  0  0  0  0
   -0.9470    3.6135    1.9240 N   0  0  0  0  0  0  0  0  0  0  0  0
   -1.6754    4.0292    1.3704 H   0  0  0  0  0  0  0  0  0  0  0  0
   -0.4815    4.1923    2.5993 H   0  0  0  0  0  0  0  0  0  0  0  0
   -0.0294    1.7385    2.8910 N   0  0  0  0  0  0  0  0  0  0  0  0
    0.6419    2.3293    3.3485 H   0  0  0  0  0  0  0  0  0  0  0  0
    0.2265    0.7605    2.7901 H   0  0  0  0  0  0  0  0  0  0  0  0
  1  2  1  0  0  0  0
  2  3  1  0  0  0  0
  2  4  1  0  0  0  0
  2  5  1  0  0  0  0
  5  6  1  0  0  0  0
  5  7  1  0  0  0  0
  5  8  1  0  0  0  0
  8  9  1  0  0  0  0
  9 10  1  0  0  0  0
  9 11  1  0  0  0  0
  9 12  1  0  0  0  0
  8 13  1  0  0  0  0
 13 14  1  0  0  0  0
 13 15  1  0  0  0  0
 13 16  1  0  0  0  0
  8 17  1  0  0  0  0
 17 18  1  0  0  0  0
 17 19  1  0  0  0  0
 17 20  1  0  0  0  0
  1 21  1  0  0  0  0
 22 23  2  0  0  0  0
 22 24  4  0  0  0  0
 24 25  1  0  0  0  0
 24 26  1  0  0  0  0
 22 27  1  0  0  0  0
 27 28  1  0  0  0  0
 27 29  1  0  0  0  0
 30 31  2  0  0  0  0
 30 32  4  0  0  0  0
 32 33  1  0  0  0  0
 32 34  1  0  0  0  0
 30 35  4  0  0  0  0
 35 36  1  0  0  0  0
 35 37  1  0  0  0  0
 38 39  4  0  0  0  0
 38 40  4  0  0  0  0
 40 41  1  0  0  0  0
 40 42  1  0  0  0  0
 38 43  4  0  0  0  0
 43 44  1  0  0  0  0
 43 45  1  0  0  0  0
 46 47  4  0  0  0  0
 46 48  4  0  0  0  0
 48 49  1  0  0  0  0
 48 50  1  0  0  0  0
 46 51  4  0  0  0  0
 51 52  1  0  0  0  0
 51 53  1  0  0  0  0
M  CHG  1   1   1
M  END
