  53

 O         -0.5290960534        2.0296283948        1.8688286789
 C         -1.3945146279        2.4278360641        0.8492954609
 H         -2.3153919104        2.7646807712        1.3329353877
 H         -0.9792407650        3.2836850431        0.2984050778
 C         -1.6849695075        1.3422375164       -0.2004888280
 H         -0.7474259015        1.0115087267       -0.6584085213
 H         -2.3158159170        1.7897556730       -0.9711144239
 N         -2.3646367024        0.1153703007        0.2944655287
 C         -2.7369305128       -0.7051739725       -0.8718217662
 H         -3.4494032768       -0.1715942759       -1.4972384350
 H         -3.1916357511       -1.6278349340       -0.5150244704
 H         -1.8402439625       -0.9280850751       -1.4479687423
 C         -3.5761423761        0.4193865895        1.0698186650
 H         -4.2423464023        1.0590155075        0.4939887223
 H         -3.3121072804        0.9124165610        2.0018944648
 H         -4.0770727732       -0.5216175875        1.2976918161
 C         -1.4487815074       -0.6801406728        1.1306780154
 H         -1.9762052481       -1.5680331323        1.4732261455
 H         -1.1182366570       -0.0880919853        1.9808566648
 H         -0.5882268525       -0.9678908295        0.5296050939
 H          0.3617972761        1.8813459290        1.4664868898
 C          1.4699829090       -1.0249642595       -1.5736719686
 O          0.2946308082       -0.6715510871       -1.5627089708
 N          2.0061779322       -1.6846628905       -2.6300331316
 H          1.3948069383       -2.0028970321       -3.3604941158
 H          2.9382287741       -2.0552513093       -2.5932037451
 N          2.2987273738       -0.8176518453       -0.5203301455
 H          3.2930665518       -0.8686870763       -0.6814006479
 H          2.0235030407       -0.0715902503        0.1096413477
 C          2.8577233511        2.1354341647        1.3975977951
 O          1.8769564350        1.7617210636        0.7264390452
 N          2.6775396677        2.7107248101        2.6043245459
 H          1.7435457045        2.8147082413        2.9626305123
 H          3.4488832720        3.0049040475        3.1744794667
 N          4.1038344928        1.9712711050        0.9537510785
 H          4.8949141878        2.2994523652        1.4766890250
 H          4.2571594591        1.5754991953        0.0172621745
 C          3.5432028454        1.4114986223       -2.4533404361
 O          4.3329084418        0.9708546668       -1.6217683216
 N          3.7776296641        1.2837702127       -3.7852737664
 H          4.6989671178        0.9905214733       -4.0618107870
 H          3.2367377560        1.7980314992       -4.4573371691
 N          2.3952601278        2.0280960063       -2.1012379718
 H          1.6926412260        2.2338830216       -2.7877825046
 H          2.1117680469        1.9819048384       -1.1260397299
 C         -4.5375100981       -3.7079707941        1.5703879089
 O         -3.9918945812       -2.6603984338        1.2513517560
 N         -5.6560163822       -3.7376764576        2.3326223314
 H         -6.0952531034       -2.8699297898        2.5816053187
 H         -6.1494552565       -4.5899269774        2.5242949312
 N         -4.0625821660       -4.9151527623        1.1805542162
 H         -4.4546578276       -5.7759285036        1.5151574818
 H         -3.1879218972       -4.9522191284        0.6889659062
