  53

 O         -2.3537520982       -1.9382607299       -0.8290688033
 C         -2.3461851325       -0.6644631175       -1.4576603804
 H         -1.4613475167       -0.5669069295       -2.0935374798
 H         -3.2383295263       -0.5672685728       -2.0911278572
 C         -2.4220470049        0.4348058293       -0.4001961116
 H         -3.1211710190        0.1145895585        0.3802164694
 H         -2.7985469693        1.3438754571       -0.8713359024
 N         -1.1517273185        0.7737109235        0.2907534312
 C         -0.5848260735       -0.4093071515        0.9546877506
 H         -1.3243255875       -0.8059856787        1.6475243063
 H          0.3082854104       -0.1029862119        1.4956907007
 H         -0.3272307122       -1.1641683955        0.2182709799
 C         -1.4512220640        1.7690107821        1.3359020870
 H         -1.8662932096        2.6710131949        0.8915495449
 H         -0.5246670536        2.0116363595        1.8543670703
 H         -2.1682756783        1.3471889663        2.0377739360
 C         -0.1573538494        1.3385518444       -0.6323049568
 H         -0.5484678680        2.2402017616       -1.0989741073
 H          0.1066835593        0.6195254316       -1.4034915945
 H          0.7393741158        1.5822023322       -0.0634027879
 H         -2.1975355505       -2.6109068829       -1.4992157375
 C          2.8512389713       -0.8276290411       -0.4019059672
 O          2.9996308354        0.2936792426       -0.8953330740
 N          1.9298269068       -1.6931652159       -0.8635916457
 H          1.4080662247       -1.4449510734       -1.7078223465
 H          1.9375546171       -2.6529415222       -0.5695513712
 N          3.6060993273       -1.2403942660        0.6428497197
 H          3.4006988815       -2.0918833895        1.1330608726
 H          4.1892538579       -0.5620895563        1.1018017576
 C          2.7170904182        2.2608696982        2.0269831505
 O          1.6423632807        1.6855250939        1.9038689964
 N          3.7526371282        2.0428436165        1.1832029507
 H          3.5515485336        1.5299416835        0.3240496624
 H          4.5410119403        2.6655850271        1.1803196458
 N          2.9397083374        3.1496683633        3.0303252555
 H          3.8569624748        3.5118024731        3.2182396031
 H          2.2511377473        3.2224678740        3.7583211357
 C          1.1094317806       -0.1586902288       -3.9010325999
 O          0.4534734779       -0.7901446352       -3.0649283399
 N          0.7379791340       -0.1351887211       -5.2030617692
 H         -0.0189212453       -0.7255002236       -5.4978732514
 H          1.3037948390        0.2994117332       -5.9086257339
 N          2.1815183355        0.5685404422       -3.5578855685
 H          2.7315088664        1.0483336090       -4.2461726578
 H          2.5087159317        0.5529368319       -2.5887314791
 C         -4.1226766261       -1.4882831780        2.4746426215
 O         -3.4792563784       -0.4562799013        2.3295089762
 N         -3.9947027749       -2.5334961925        1.6230306367
 H         -3.4430886436       -2.4051460580        0.7860868480
 H         -4.6050488113       -3.3281265998        1.6756149293
 N         -4.9988650295       -1.6520355693        3.4943944705
 H         -5.4449065587       -2.5312718143        3.6806978190
 H         -5.0454534686       -0.9366283427        4.1977316298
