 xtb: 6.6.1 (unknown-commit)
          01102418323D

 53 48  0     0  0            999 V2000
   -2.3538   -1.9382   -0.8291 O   0  0  0  0  0  0  0  0  0  0  0  0
   -2.3462   -0.6645   -1.4577 C   0  0  0  0  0  0  0  0  0  0  0  0
   -1.4614   -0.5669   -2.0935 H   0  0  0  0  0  0  0  0  0  0  0  0
   -3.2383   -0.5673   -2.0911 H   0  0  0  0  0  0  0  0  0  0  0  0
   -2.4220    0.4348   -0.4002 C   0  0  0  0  0  0  0  0  0  0  0  0
   -3.1212    0.1146    0.3802 H   0  0  0  0  0  0  0  0  0  0  0  0
   -2.7985    1.3439   -0.8713 H   0  0  0  0  0  0  0  0  0  0  0  0
   -1.1517    0.7737    0.2908 N   0  0  0  0  0  0  0  0  0  0  0  0
   -0.5848   -0.4093    0.9547 C   0  0  0  0  0  0  0  0  0  0  0  0
   -1.3243   -0.8060    1.6475 H   0  0  0  0  0  0  0  0  0  0  0  0
    0.3083   -0.1030    1.4957 H   0  0  0  0  0  0  0  0  0  0  0  0
   -0.3272   -1.1642    0.2183 H   0  0  0  0  0  0  0  0  0  0  0  0
   -1.4512    1.7690    1.3359 C   0  0  0  0  0  0  0  0  0  0  0  0
   -1.8663    2.6710    0.8916 H   0  0  0  0  0  0  0  0  0  0  0  0
   -0.5247    2.0116    1.8544 H   0  0  0  0  0  0  0  0  0  0  0  0
   -2.1683    1.3472    2.0378 H   0  0  0  0  0  0  0  0  0  0  0  0
   -0.1573    1.3386   -0.6323 C   0  0  0  0  0  0  0  0  0  0  0  0
   -0.5485    2.2402   -1.0990 H   0  0  0  0  0  0  0  0  0  0  0  0
    0.1067    0.6195   -1.4035 H   0  0  0  0  0  0  0  0  0  0  0  0
    0.7394    1.5822   -0.0634 H   0  0  0  0  0  0  0  0  0  0  0  0
   -2.1976   -2.6109   -1.4992 H   0  0  0  0  0  0  0  0  0  0  0  0
    2.8512   -0.8276   -0.4019 C   0  0  0  0  0  0  0  0  0  0  0  0
    2.9996    0.2937   -0.8953 O   0  0  0  0  0  0  0  0  0  0  0  0
    1.9298   -1.6932   -0.8636 N   0  0  0  0  0  0  0  0  0  0  0  0
    1.4081   -1.4450   -1.7078 H   0  0  0  0  0  0  0  0  0  0  0  0
    1.9375   -2.6530   -0.5696 H   0  0  0  0  0  0  0  0  0  0  0  0
    3.6061   -1.2404    0.6428 N   0  0  0  0  0  0  0  0  0  0  0  0
    3.4007   -2.0919    1.1331 H   0  0  0  0  0  0  0  0  0  0  0  0
    4.1893   -0.5621    1.1018 H   0  0  0  0  0  0  0  0  0  0  0  0
    2.7171    2.2609    2.0270 C   0  0  0  0  0  0  0  0  0  0  0  0
    1.6424    1.6855    1.9039 O   0  0  0  0  0  0  0  0  0  0  0  0
    3.7527    2.0428    1.1832 N   0  0  0  0  0  0  0  0  0  0  0  0
    3.5516    1.5299    0.3240 H   0  0  0  0  0  0  0  0  0  0  0  0
    4.5410    2.6656    1.1803 H   0  0  0  0  0  0  0  0  0  0  0  0
    2.9397    3.1497    3.0303 N   0  0  0  0  0  0  0  0  0  0  0  0
    3.8570    3.5118    3.2182 H   0  0  0  0  0  0  0  0  0  0  0  0
    2.2512    3.2225    3.7583 H   0  0  0  0  0  0  0  0  0  0  0  0
    1.1094   -0.1587   -3.9010 C   0  0  0  0  0  0  0  0  0  0  0  0
    0.4535   -0.7902   -3.0649 O   0  0  0  0  0  0  0  0  0  0  0  0
    0.7380   -0.1352   -5.2031 N   0  0  0  0  0  0  0  0  0  0  0  0
   -0.0189   -0.7255   -5.4979 H   0  0  0  0  0  0  0  0  0  0  0  0
    1.3038    0.2994   -5.9086 H   0  0  0  0  0  0  0  0  0  0  0  0
    2.1815    0.5685   -3.5579 N   0  0  0  0  0  0  0  0  0  0  0  0
    2.7315    1.0483   -4.2462 H   0  0  0  0  0  0  0  0  0  0  0  0
    2.5087    0.5529   -2.5887 H   0  0  0  0  0  0  0  0  0  0  0  0
   -4.1227   -1.4883    2.4747 C   0  0  0  0  0  0  0  0  0  0  0  0
   -3.4793   -0.4563    2.3295 O   0  0  0  0  0  0  0  0  0  0  0  0
   -3.9947   -2.5335    1.6230 N   0  0  0  0  0  0  0  0  0  0  0  0
   -3.4431   -2.4051    0.7861 H   0  0  0  0  0  0  0  0  0  0  0  0
   -4.6051   -3.3281    1.6756 H   0  0  0  0  0  0  0  0  0  0  0  0
   -4.9989   -1.6520    3.4944 N   0  0  0  0  0  0  0  0  0  0  0  0
   -5.4449   -2.5312    3.6807 H   0  0  0  0  0  0  0  0  0  0  0  0
   -5.0454   -0.9366    4.1978 H   0  0  0  0  0  0  0  0  0  0  0  0
  1  2  1  0  0  0  0
  2  3  1  0  0  0  0
  2  4  1  0  0  0  0
  2  5  1  0  0  0  0
  5  6  1  0  0  0  0
  5  7  1  0  0  0  0
  5  8  1  0  0  0  0
  8  9  1  0  0  0  0
  9 10  1  0  0  0  0
  9 11  1  0  0  0  0
  9 12  1  0  0  0  0
  8 13  1  0  0  0  0
 13 14  1  0  0  0  0
 13 15  1  0  0  0  0
 13 16  1  0  0  0  0
  8 17  1  0  0  0  0
 17 18  1  0  0  0  0
 17 19  1  0  0  0  0
 17 20  1  0  0  0  0
  1 21  1  0  0  0  0
 22 23  4  0  0  0  0
 22 24  4  0  0  0  0
 24 25  1  0  0  0  0
 24 26  1  0  0  0  0
 22 27  4  0  0  0  0
 27 28  1  0  0  0  0
 27 29  1  0  0  0  0
 30 31  2  0  0  0  0
 30 32  4  0  0  0  0
 32 33  1  0  0  0  0
 32 34  1  0  0  0  0
 30 35  1  0  0  0  0
 35 36  1  0  0  0  0
 35 37  1  0  0  0  0
 38 39  4  0  0  0  0
 38 40  4  0  0  0  0
 40 41  1  0  0  0  0
 40 42  1  0  0  0  0
 38 43  4  0  0  0  0
 43 44  1  0  0  0  0
 43 45  1  0  0  0  0
 46 47  2  0  0  0  0
 46 48  4  0  0  0  0
 48 49  1  0  0  0  0
 48 50  1  0  0  0  0
 46 51  4  0  0  0  0
 51 52  1  0  0  0  0
 51 53  1  0  0  0  0
M  CHG  1   1   1
M  END
