  53

 O          0.3856314461        0.0623127340       -1.6063906252
 C         -0.8032637313       -0.1142164782       -0.8635940065
 H         -0.9764042817        0.7308904722       -0.1976799233
 H         -1.6163421611       -0.1388762147       -1.5958566952
 C         -0.8612052496       -1.4487588201       -0.1097104730
 H         -0.3558217033       -2.2053136681       -0.7142880860
 H         -1.9141750491       -1.7075166580        0.0139806334
 N         -0.2482106517       -1.5006013984        1.2481985432
 C         -0.9921151677       -0.6596604459        2.1987352266
 H         -2.0538041652       -0.8996378179        2.1368843137
 H         -0.8687087728        0.3938975439        1.9568245321
 H         -0.6287460027       -0.8359531407        3.2084670452
 C          1.1625520331       -1.0926732149        1.2175083921
 H          1.6063192181       -1.2361213165        2.2009285043
 H          1.2499581059       -0.0434410106        0.9469550362
 H          1.6902729314       -1.7115352015        0.4920484704
 C         -0.3210538225       -2.9051685151        1.6860611971
 H          0.2542679857       -3.5266303708        1.0009825185
 H         -1.3585818629       -3.2325139775        1.6943116371
 H          0.0904434703       -3.0060678211        2.6885695899
 H          1.0146448295        0.6206584906       -1.1032858495
 C          2.1834184659       -3.0549131126       -2.0395780769
 O          1.6563974036       -3.2243784823       -0.9504147375
 N          2.1564585783       -1.8392073484       -2.6699342462
 H          1.4006644795       -1.2118253887       -2.3808638968
 H          2.3748939361       -1.8135091344       -3.6527908142
 N          2.8923691934       -4.0275131362       -2.6549891252
 H          3.3186770339       -3.9052033119       -3.5549359220
 H          2.9768430031       -4.9193057336       -2.2006896311
 C         -0.8332821071        3.4058100742        1.0741728166
 O         -1.2715204714        2.2654436569        1.1893409115
 N          0.4390410263        3.6575070257        0.7027456350
 H          1.0229785971        2.8935347939        0.3809536700
 H          0.7279250242        4.5933086344        0.4818310045
 N         -1.6138612933        4.4917196417        1.3125548258
 H         -1.2220553233        5.4143319534        1.3719435635
 H         -2.5068039807        4.3399362157        1.7478202141
 C          3.4032327666        1.4161476610       -0.5547153706
 O          2.2173683559        1.5362489999       -0.2369050739
 N          3.8499395835        0.3738052125       -1.2789948658
 H          3.2053145665       -0.3176288637       -1.6406598553
 H          4.8114382345        0.3142516373       -1.5605010250
 N          4.3234214544        2.3297755493       -0.1789540120
 H          5.2995440617        2.2255815382       -0.3863804097
 H          4.0399858129        3.0904923695        0.4121761189
 C         -4.4465276249       -0.0470865891        0.7140016534
 O         -3.7155511120       -1.0038540075        0.9281554747
 N         -4.0435014311        1.2371571995        0.8622048246
 H         -3.0665278137        1.4495986702        1.0236245014
 H         -4.6302546650        1.9857160561        0.5403877959
 N         -5.7313467132       -0.2130530268        0.2969025848
 H         -6.3861049905        0.5482460465        0.2996859479
 H         -6.1068669618       -1.1449618393        0.3258865704
