  53

 O         -0.8860680455       -2.7170393792       -1.9932198341
 C          0.4641039026       -2.3930088925       -2.1726418538
 H          0.9596784269       -3.3044693160       -2.5154421812
 H          0.5752726435       -1.6401091812       -2.9666824814
 C          1.1443096692       -1.8020896440       -0.9344417487
 H          0.6027370186       -0.9051569910       -0.6265865003
 H          2.1671438667       -1.5189949159       -1.1955766801
 N          1.2442598597       -2.6894876215        0.2585125603
 C         -0.0888435053       -3.0919467041        0.7312594931
 H         -0.6879260738       -2.2046022864        0.9301475188
 H          0.0016978267       -3.6789456272        1.6434386154
 H         -0.5936322865       -3.6818346077       -0.0315032925
 C          1.9280523217       -1.9286605403        1.3197652276
 H          1.4163930077       -0.9839866197        1.4921982225
 H          2.9434576530       -1.7105733930        0.9895505247
 H          1.9559335172       -2.5093149882        2.2387743958
 C          2.0563738529       -3.8754377462       -0.0532669104
 H          3.0194643770       -3.5483969615       -0.4433691594
 H          1.5544417785       -4.4988411505       -0.7888991702
 H          2.2162069941       -4.4615185457        0.8498213479
 H         -1.3308133163       -1.9322283932       -1.5931642262
 C          4.6644770351       -0.2776746855       -0.7324784414
 O          4.1608738163       -1.3944609755       -0.6753056801
 N          5.8943859556       -0.0815473955       -1.2699519499
 H          6.4317149324       -0.8918630276       -1.5221243036
 H          6.3699309995        0.7999625305       -1.2087327225
 N          4.0359966721        0.8267771597       -0.2724689880
 H          4.4329125224        1.7363209158       -0.4222630964
 H          3.0724856890        0.7762076396        0.0390853206
 C         -3.1256181610        3.2787281684        2.0165310674
 O         -3.0793454620        2.8797406365        0.8563975042
 N         -4.3026133558        3.5467536124        2.6294214494
 H         -5.1383707186        3.5386533364        2.0717225628
 H         -4.3430166106        3.9939793062        3.5272453823
 N         -2.0125718060        3.4611197649        2.7609223952
 H         -2.0654660287        3.7297717796        3.7262611726
 H         -1.1118412866        3.2038120219        2.3827578716
 C         -3.2749586785       -0.4762043605       -1.0822620085
 O         -2.0853444961       -0.6249756451       -0.7737661639
 N         -3.9049776322       -1.3906569930       -1.8513211598
 H         -3.3864314798       -2.1795189089       -2.1985504079
 H         -4.8635119930       -1.2870750679       -2.1287690666
 N         -4.0036579079        0.5682461096       -0.6618434115
 H         -4.9503592884        0.6904044856       -0.9724077134
 H         -3.5868315166        1.3200324965       -0.1242056559
 C          0.4108791251        1.9056325909        0.4723267535
 O          1.2402977384        1.0086562725        0.5868816006
 N          0.5927572323        3.1336174057        1.0860883523
 H          1.5310238467        3.3114343083        1.4117092848
 H          0.1426171844        3.9270062390        0.6559355267
 N         -0.7307393415        1.7845828400       -0.2164711971
 H         -1.4876824001        2.4391262456       -0.0431625291
 H         -1.0418729380        0.8535238030       -0.4851200089
