 xtb: 6.6.1 (unknown-commit)
          01102418253D

 53 48  0     0  0            999 V2000
   -2.1402   -2.3595   -0.4522 O   0  0  0  0  0  0  0  0  0  0  0  0
   -0.8816   -1.9128   -0.8644 C   0  0  0  0  0  0  0  0  0  0  0  0
   -0.2398   -2.7943   -0.9315 H   0  0  0  0  0  0  0  0  0  0  0  0
   -0.9374   -1.4629   -1.8653 H   0  0  0  0  0  0  0  0  0  0  0  0
   -0.2749   -0.8393    0.0472 C   0  0  0  0  0  0  0  0  0  0  0  0
   -0.9678    0.0053    0.0832 H   0  0  0  0  0  0  0  0  0  0  0  0
    0.6681   -0.5075   -0.3878 H   0  0  0  0  0  0  0  0  0  0  0  0
   -0.0106   -1.2543    1.4539 N   0  0  0  0  0  0  0  0  0  0  0  0
   -1.2771   -1.3855    2.1923 C   0  0  0  0  0  0  0  0  0  0  0  0
   -1.7865   -0.4246    2.2153 H   0  0  0  0  0  0  0  0  0  0  0  0
   -1.0802   -1.7148    3.2110 H   0  0  0  0  0  0  0  0  0  0  0  0
   -1.9152   -2.1109    1.6897 H   0  0  0  0  0  0  0  0  0  0  0  0
    0.8004   -0.1970    2.0812 C   0  0  0  0  0  0  0  0  0  0  0  0
    0.3182    0.7691    1.9214 H   0  0  0  0  0  0  0  0  0  0  0  0
    1.7913   -0.1809    1.6325 H   0  0  0  0  0  0  0  0  0  0  0  0
    0.8950   -0.3837    3.1490 H   0  0  0  0  0  0  0  0  0  0  0  0
    0.7223   -2.5295    1.5118 C   0  0  0  0  0  0  0  0  0  0  0  0
    1.5783   -2.5001    0.8357 H   0  0  0  0  0  0  0  0  0  0  0  0
    0.0662   -3.3480    1.2255 H   0  0  0  0  0  0  0  0  0  0  0  0
    1.0734   -2.7038    2.5270 H   0  0  0  0  0  0  0  0  0  0  0  0
   -2.7352   -1.5832   -0.4530 H   0  0  0  0  0  0  0  0  0  0  0  0
    2.5684   -2.2969   -1.9769 C   0  0  0  0  0  0  0  0  0  0  0  0
    2.8155   -2.2458   -0.7697 O   0  0  0  0  0  0  0  0  0  0  0  0
    2.2488   -1.1977   -2.6818 N   0  0  0  0  0  0  0  0  0  0  0  0
    2.1811   -0.3062   -2.1967 H   0  0  0  0  0  0  0  0  0  0  0  0
    2.0302   -1.2400   -3.6597 H   0  0  0  0  0  0  0  0  0  0  0  0
    2.5660   -3.4753   -2.6417 N   0  0  0  0  0  0  0  0  0  0  0  0
    2.4786   -3.5196   -3.6406 H   0  0  0  0  0  0  0  0  0  0  0  0
    2.9056   -4.2900   -2.1614 H   0  0  0  0  0  0  0  0  0  0  0  0
   -0.8889    3.0100    0.1205 C   0  0  0  0  0  0  0  0  0  0  0  0
   -0.9259    2.2105    1.0555 O   0  0  0  0  0  0  0  0  0  0  0  0
    0.1036    3.0219   -0.7882 N   0  0  0  0  0  0  0  0  0  0  0  0
    0.7775    2.2585   -0.8195 H   0  0  0  0  0  0  0  0  0  0  0  0
    0.0213    3.5922   -1.6109 H   0  0  0  0  0  0  0  0  0  0  0  0
   -1.8537    3.9511   -0.0411 N   0  0  0  0  0  0  0  0  0  0  0  0
   -1.7830    4.6646   -0.7432 H   0  0  0  0  0  0  0  0  0  0  0  0
   -2.5424    4.0711    0.6796 H   0  0  0  0  0  0  0  0  0  0  0  0
    3.1866    1.2088   -0.2992 C   0  0  0  0  0  0  0  0  0  0  0  0
    2.1622    1.0875   -0.9808 O   0  0  0  0  0  0  0  0  0  0  0  0
    3.6883    2.4266   -0.0003 N   0  0  0  0  0  0  0  0  0  0  0  0
    3.2111    3.2456   -0.3316 H   0  0  0  0  0  0  0  0  0  0  0  0
    4.5091    2.5444    0.5645 H   0  0  0  0  0  0  0  0  0  0  0  0
    3.8098    0.1383    0.2253 N   0  0  0  0  0  0  0  0  0  0  0  0
    4.7238    0.2266    0.6326 H   0  0  0  0  0  0  0  0  0  0  0  0
    3.5210   -0.7884   -0.1118 H   0  0  0  0  0  0  0  0  0  0  0  0
   -4.0343    0.6124    0.7095 C   0  0  0  0  0  0  0  0  0  0  0  0
   -3.2933    0.0860   -0.1115 O   0  0  0  0  0  0  0  0  0  0  0  0
   -5.3729    0.4025    0.7042 N   0  0  0  0  0  0  0  0  0  0  0  0
   -5.7503   -0.2543    0.0447 H   0  0  0  0  0  0  0  0  0  0  0  0
   -5.9772    0.7564    1.4226 H   0  0  0  0  0  0  0  0  0  0  0  0
   -3.5517    1.4033    1.7001 N   0  0  0  0  0  0  0  0  0  0  0  0
   -4.1812    1.9515    2.2593 H   0  0  0  0  0  0  0  0  0  0  0  0
   -2.5942    1.7418    1.5890 H   0  0  0  0  0  0  0  0  0  0  0  0
  1  2  1  0  0  0  0
  2  3  1  0  0  0  0
  2  4  1  0  0  0  0
  2  5  1  0  0  0  0
  5  6  1  0  0  0  0
  5  7  1  0  0  0  0
  5  8  1  0  0  0  0
  8  9  1  0  0  0  0
  9 10  1  0  0  0  0
  9 11  1  0  0  0  0
  9 12  1  0  0  0  0
  8 13  1  0  0  0  0
 13 14  1  0  0  0  0
 13 15  1  0  0  0  0
 13 16  1  0  0  0  0
  8 17  1  0  0  0  0
 17 18  1  0  0  0  0
 17 19  1  0  0  0  0
 17 20  1  0  0  0  0
  1 21  1  0  0  0  0
 22 23  4  0  0  0  0
 22 24  4  0  0  0  0
 24 25  1  0  0  0  0
 24 26  1  0  0  0  0
 22 27  4  0  0  0  0
 27 28  1  0  0  0  0
 27 29  1  0  0  0  0
 30 31  2  0  0  0  0
 30 32  4  0  0  0  0
 32 33  1  0  0  0  0
 32 34  1  0  0  0  0
 30 35  4  0  0  0  0
 35 36  1  0  0  0  0
 35 37  1  0  0  0  0
 38 39  4  0  0  0  0
 38 40  4  0  0  0  0
 40 41  1  0  0  0  0
 40 42  1  0  0  0  0
 38 43  4  0  0  0  0
 43 44  1  0  0  0  0
 43 45  1  0  0  0  0
 46 47  2  0  0  0  0
 46 48  4  0  0  0  0
 48 49  1  0  0  0  0
 48 50  1  0  0  0  0
 46 51  4  0  0  0  0
 51 52  1  0  0  0  0
 51 53  1  0  0  0  0
M  CHG  1   1   1
M  END
