 xtb: 6.6.1 (unknown-commit)
          01102415343D

 53 48  0     0  0            999 V2000
   -0.3532   -0.1621   -3.0357 O   0  0  0  0  0  0  0  0  0  0  0  0
    0.9467    0.2822   -2.7831 C   0  0  0  0  0  0  0  0  0  0  0  0
    1.5914   -0.2072   -3.5171 H   0  0  0  0  0  0  0  0  0  0  0  0
    1.0287    1.3660   -2.9450 H   0  0  0  0  0  0  0  0  0  0  0  0
    1.4412    0.0297   -1.3509 C   0  0  0  0  0  0  0  0  0  0  0  0
    0.7541    0.5037   -0.6467 H   0  0  0  0  0  0  0  0  0  0  0  0
    2.4319    0.4764   -1.2491 H   0  0  0  0  0  0  0  0  0  0  0  0
    1.5681   -1.3949   -0.9364 N   0  0  0  0  0  0  0  0  0  0  0  0
    2.1392   -1.3947    0.4226 C   0  0  0  0  0  0  0  0  0  0  0  0
    3.1466   -0.9843    0.3776 H   0  0  0  0  0  0  0  0  0  0  0  0
    2.1757   -2.4094    0.8128 H   0  0  0  0  0  0  0  0  0  0  0  0
    1.5251   -0.7741    1.0763 H   0  0  0  0  0  0  0  0  0  0  0  0
    2.4817   -2.1222   -1.8304 C   0  0  0  0  0  0  0  0  0  0  0  0
    2.0459   -2.2167   -2.8215 H   0  0  0  0  0  0  0  0  0  0  0  0
    2.6655   -3.1190   -1.4341 H   0  0  0  0  0  0  0  0  0  0  0  0
    3.4241   -1.5779   -1.8845 H   0  0  0  0  0  0  0  0  0  0  0  0
    0.2537   -2.0566   -0.9196 C   0  0  0  0  0  0  0  0  0  0  0  0
   -0.2018   -1.9935   -1.9065 H   0  0  0  0  0  0  0  0  0  0  0  0
   -0.4018   -1.5611   -0.2058 H   0  0  0  0  0  0  0  0  0  0  0  0
    0.3697   -3.1001   -0.6335 H   0  0  0  0  0  0  0  0  0  0  0  0
   -0.9743    0.3867   -2.5159 H   0  0  0  0  0  0  0  0  0  0  0  0
    5.6719    0.5845   -0.8901 C   0  0  0  0  0  0  0  0  0  0  0  0
    4.5947    0.0128   -0.9903 O   0  0  0  0  0  0  0  0  0  0  0  0
    5.9155    1.4954    0.0835 N   0  0  0  0  0  0  0  0  0  0  0  0
    5.2246    1.6263    0.8006 H   0  0  0  0  0  0  0  0  0  0  0  0
    6.8300    1.8802    0.2338 H   0  0  0  0  0  0  0  0  0  0  0  0
    6.6957    0.3530   -1.7448 N   0  0  0  0  0  0  0  0  0  0  0  0
    7.5455    0.8858   -1.7166 H   0  0  0  0  0  0  0  0  0  0  0  0
    6.5374   -0.2435   -2.5368 H   0  0  0  0  0  0  0  0  0  0  0  0
   -1.2358    2.6750   -1.0285 C   0  0  0  0  0  0  0  0  0  0  0  0
   -1.6410    1.5537   -1.3453 O   0  0  0  0  0  0  0  0  0  0  0  0
   -1.5160    3.7584   -1.7923 N   0  0  0  0  0  0  0  0  0  0  0  0
   -2.1494    3.6421   -2.5635 H   0  0  0  0  0  0  0  0  0  0  0  0
   -1.2892    4.6911   -1.4998 H   0  0  0  0  0  0  0  0  0  0  0  0
   -0.4525    2.8692    0.0452 N   0  0  0  0  0  0  0  0  0  0  0  0
   -0.1906    3.7906    0.3433 H   0  0  0  0  0  0  0  0  0  0  0  0
   -0.2541    2.0758    0.6622 H   0  0  0  0  0  0  0  0  0  0  0  0
   -5.3381   -1.5750    2.7147 C   0  0  0  0  0  0  0  0  0  0  0  0
   -4.1650   -1.2686    2.5538 O   0  0  0  0  0  0  0  0  0  0  0  0
   -5.8287   -1.9445    3.9220 N   0  0  0  0  0  0  0  0  0  0  0  0
   -5.2297   -1.8715    4.7247 H   0  0  0  0  0  0  0  0  0  0  0  0
   -6.8091   -2.0924    4.0761 H   0  0  0  0  0  0  0  0  0  0  0  0
   -6.2326   -1.5656    1.6965 N   0  0  0  0  0  0  0  0  0  0  0  0
   -7.1650   -1.9198    1.8059 H   0  0  0  0  0  0  0  0  0  0  0  0
   -5.8971   -1.3997    0.7645 H   0  0  0  0  0  0  0  0  0  0  0  0
   -1.1213   -0.0309    1.7877 C   0  0  0  0  0  0  0  0  0  0  0  0
   -0.0555    0.5569    1.5463 O   0  0  0  0  0  0  0  0  0  0  0  0
   -2.0671   -0.2145    0.8458 N   0  0  0  0  0  0  0  0  0  0  0  0
   -2.0255    0.3590    0.0052 H   0  0  0  0  0  0  0  0  0  0  0  0
   -2.9626   -0.5664    1.1560 H   0  0  0  0  0  0  0  0  0  0  0  0
   -1.3533   -0.6361    2.9705 N   0  0  0  0  0  0  0  0  0  0  0  0
   -2.2816   -0.9874    3.1549 H   0  0  0  0  0  0  0  0  0  0  0  0
   -0.7261   -0.4639    3.7355 H   0  0  0  0  0  0  0  0  0  0  0  0
  1  2  1  0  0  0  0
  2  3  1  0  0  0  0
  2  4  1  0  0  0  0
  2  5  1  0  0  0  0
  5  6  1  0  0  0  0
  5  7  1  0  0  0  0
  5  8  1  0  0  0  0
  8  9  1  0  0  0  0
  9 10  1  0  0  0  0
  9 11  1  0  0  0  0
  9 12  1  0  0  0  0
  8 13  1  0  0  0  0
 13 14  1  0  0  0  0
 13 15  1  0  0  0  0
 13 16  1  0  0  0  0
  8 17  1  0  0  0  0
 17 18  1  0  0  0  0
 17 19  1  0  0  0  0
 17 20  1  0  0  0  0
  1 21  1  0  0  0  0
 22 23  2  0  0  0  0
 22 24  4  0  0  0  0
 24 25  1  0  0  0  0
 24 26  1  0  0  0  0
 22 27  4  0  0  0  0
 27 28  1  0  0  0  0
 27 29  1  0  0  0  0
 30 31  4  0  0  0  0
 30 32  4  0  0  0  0
 32 33  1  0  0  0  0
 32 34  1  0  0  0  0
 30 35  4  0  0  0  0
 35 36  1  0  0  0  0
 35 37  1  0  0  0  0
 38 39  2  0  0  0  0
 38 40  4  0  0  0  0
 40 41  1  0  0  0  0
 40 42  1  0  0  0  0
 38 43  4  0  0  0  0
 43 44  1  0  0  0  0
 43 45  1  0  0  0  0
 46 47  4  0  0  0  0
 46 48  4  0  0  0  0
 48 49  1  0  0  0  0
 48 50  1  0  0  0  0
 46 51  4  0  0  0  0
 51 52  1  0  0  0  0
 51 53  1  0  0  0  0
M  CHG  1   1   1
M  END
