  53

 O         -1.3689766417        0.1226147891       -2.1238444466
 C          0.0064812978        0.1557274744       -1.8022997067
 H          0.5418996414        0.0471211876       -2.7489976682
 H          0.2642016713        1.1391819401       -1.3857427587
 C          0.4167291844       -0.8869173015       -0.7691631147
 H         -0.3248972036       -0.8611497224        0.0315347252
 H          1.3962695933       -0.6411682049       -0.3509090506
 N          0.4944991589       -2.3002376968       -1.2357104570
 C          0.6946692922       -3.1382271709       -0.0400465598
 H          1.5997183147       -2.8047017689        0.4685369554
 H          0.8012449193       -4.1821329208       -0.3272965222
 H         -0.1537029966       -3.0357763899        0.6331783050
 C          1.6535638675       -2.4784609490       -2.1232003343
 H          1.5500864949       -1.8644679150       -3.0141905933
 H          1.7360899078       -3.5207463464       -2.4250593557
 H          2.5532718485       -2.1854170312       -1.5828377492
 C         -0.7485978103       -2.7018065273       -1.9107873314
 H         -0.8878922419       -2.1302818312       -2.8254202270
 H         -1.5953515418       -2.5056641120       -1.2536079118
 H         -0.7155129249       -3.7623791710       -2.1530709201
 H         -1.8739648922       -0.0525388064       -1.3130093235
 C         -0.0117677409        1.3669636933        1.5183191762
 O          0.2376919232        0.3467466160        2.1826379215
 N         -1.2199191293        1.6019991020        0.9774044224
 H         -1.8805600584        0.8408695183        0.9159772595
 H         -1.2805944446        2.3476484648        0.2935409109
 N          0.9112089674        2.3226111607        1.3064903670
 H          0.7043553418        3.0761861632        0.6716131337
 H          1.8329377340        2.2259658221        1.6917468296
 C         -1.1697215632        3.7964796853       -2.0475913082
 O         -0.5501892986        3.4226796579       -1.0549882746
 N         -1.8930271944        2.9451843524       -2.8063585304
 H         -1.8204072526        1.9487812941       -2.6378075858
 H         -2.3141703821        3.2475745630       -3.6656338190
 N         -1.1682005174        5.0933845296       -2.4372010916
 H         -1.7479055960        5.4272733322       -3.1850510153
 H         -0.7257429913        5.7697905171       -1.8410636424
 C         -2.6942170505       -1.5320139227        1.4873395285
 O         -2.4413990873       -1.0067646015        0.3969891239
 N         -1.8333037506       -1.4697949659        2.5163602619
 H         -1.0391183682       -0.8168174183        2.4622819887
 H         -2.0987884429       -1.8044353014        3.4251486036
 N         -3.8125687272       -2.2779239713        1.6585714967
 H         -4.0945649996       -2.6009019808        2.5664489405
 H         -4.5040628208       -2.2698431304        0.9293058681
 C          3.6559811195       -0.9361363491        1.5238091929
 O          3.1278470207       -1.3589152792        0.4974184517
 N          2.9957000009       -0.1742633186        2.4193795011
 H          1.9804229293       -0.0718742127        2.3474620901
 H          3.4111812065        0.0184991856        3.3135738153
 N          4.9536781637       -1.2108617322        1.8110067305
 H          5.4305621557       -0.7743908188        2.5788004634
 H          5.5106092312       -1.6636596885        1.1083738344
