 xtb: 6.6.1 (unknown-commit)
          01102415343D

 53 48  0     0  0            999 V2000
   -1.3690    0.1226   -2.1238 O   0  0  0  0  0  0  0  0  0  0  0  0
    0.0065    0.1557   -1.8023 C   0  0  0  0  0  0  0  0  0  0  0  0
    0.5419    0.0471   -2.7490 H   0  0  0  0  0  0  0  0  0  0  0  0
    0.2642    1.1392   -1.3857 H   0  0  0  0  0  0  0  0  0  0  0  0
    0.4167   -0.8869   -0.7692 C   0  0  0  0  0  0  0  0  0  0  0  0
   -0.3249   -0.8611    0.0315 H   0  0  0  0  0  0  0  0  0  0  0  0
    1.3963   -0.6412   -0.3509 H   0  0  0  0  0  0  0  0  0  0  0  0
    0.4945   -2.3002   -1.2357 N   0  0  0  0  0  0  0  0  0  0  0  0
    0.6947   -3.1382   -0.0400 C   0  0  0  0  0  0  0  0  0  0  0  0
    1.5997   -2.8047    0.4685 H   0  0  0  0  0  0  0  0  0  0  0  0
    0.8012   -4.1821   -0.3273 H   0  0  0  0  0  0  0  0  0  0  0  0
   -0.1537   -3.0358    0.6332 H   0  0  0  0  0  0  0  0  0  0  0  0
    1.6535   -2.4785   -2.1232 C   0  0  0  0  0  0  0  0  0  0  0  0
    1.5501   -1.8645   -3.0142 H   0  0  0  0  0  0  0  0  0  0  0  0
    1.7361   -3.5208   -2.4251 H   0  0  0  0  0  0  0  0  0  0  0  0
    2.5533   -2.1854   -1.5828 H   0  0  0  0  0  0  0  0  0  0  0  0
   -0.7486   -2.7018   -1.9108 C   0  0  0  0  0  0  0  0  0  0  0  0
   -0.8879   -2.1303   -2.8254 H   0  0  0  0  0  0  0  0  0  0  0  0
   -1.5954   -2.5057   -1.2536 H   0  0  0  0  0  0  0  0  0  0  0  0
   -0.7155   -3.7624   -2.1531 H   0  0  0  0  0  0  0  0  0  0  0  0
   -1.8740   -0.0525   -1.3130 H   0  0  0  0  0  0  0  0  0  0  0  0
   -0.0118    1.3670    1.5183 C   0  0  0  0  0  0  0  0  0  0  0  0
    0.2377    0.3467    2.1826 O   0  0  0  0  0  0  0  0  0  0  0  0
   -1.2199    1.6020    0.9774 N   0  0  0  0  0  0  0  0  0  0  0  0
   -1.8806    0.8409    0.9160 H   0  0  0  0  0  0  0  0  0  0  0  0
   -1.2806    2.3477    0.2935 H   0  0  0  0  0  0  0  0  0  0  0  0
    0.9112    2.3226    1.3065 N   0  0  0  0  0  0  0  0  0  0  0  0
    0.7044    3.0762    0.6716 H   0  0  0  0  0  0  0  0  0  0  0  0
    1.8330    2.2260    1.6917 H   0  0  0  0  0  0  0  0  0  0  0  0
   -1.1697    3.7965   -2.0476 C   0  0  0  0  0  0  0  0  0  0  0  0
   -0.5502    3.4227   -1.0550 O   0  0  0  0  0  0  0  0  0  0  0  0
   -1.8930    2.9452   -2.8064 N   0  0  0  0  0  0  0  0  0  0  0  0
   -1.8204    1.9488   -2.6378 H   0  0  0  0  0  0  0  0  0  0  0  0
   -2.3142    3.2476   -3.6656 H   0  0  0  0  0  0  0  0  0  0  0  0
   -1.1682    5.0934   -2.4372 N   0  0  0  0  0  0  0  0  0  0  0  0
   -1.7479    5.4273   -3.1851 H   0  0  0  0  0  0  0  0  0  0  0  0
   -0.7257    5.7698   -1.8411 H   0  0  0  0  0  0  0  0  0  0  0  0
   -2.6942   -1.5320    1.4874 C   0  0  0  0  0  0  0  0  0  0  0  0
   -2.4414   -1.0068    0.3970 O   0  0  0  0  0  0  0  0  0  0  0  0
   -1.8333   -1.4698    2.5164 N   0  0  0  0  0  0  0  0  0  0  0  0
   -1.0391   -0.8168    2.4623 H   0  0  0  0  0  0  0  0  0  0  0  0
   -2.0988   -1.8044    3.4252 H   0  0  0  0  0  0  0  0  0  0  0  0
   -3.8126   -2.2779    1.6586 N   0  0  0  0  0  0  0  0  0  0  0  0
   -4.0946   -2.6009    2.5665 H   0  0  0  0  0  0  0  0  0  0  0  0
   -4.5041   -2.2698    0.9293 H   0  0  0  0  0  0  0  0  0  0  0  0
    3.6560   -0.9362    1.5238 C   0  0  0  0  0  0  0  0  0  0  0  0
    3.1278   -1.3589    0.4974 O   0  0  0  0  0  0  0  0  0  0  0  0
    2.9957   -0.1743    2.4194 N   0  0  0  0  0  0  0  0  0  0  0  0
    1.9804   -0.0719    2.3475 H   0  0  0  0  0  0  0  0  0  0  0  0
    3.4112    0.0185    3.3136 H   0  0  0  0  0  0  0  0  0  0  0  0
    4.9537   -1.2109    1.8110 N   0  0  0  0  0  0  0  0  0  0  0  0
    5.4306   -0.7744    2.5788 H   0  0  0  0  0  0  0  0  0  0  0  0
    5.5106   -1.6637    1.1084 H   0  0  0  0  0  0  0  0  0  0  0  0
  1  2  1  0  0  0  0
  2  3  1  0  0  0  0
  2  4  1  0  0  0  0
  2  5  1  0  0  0  0
  5  6  1  0  0  0  0
  5  7  1  0  0  0  0
  5  8  1  0  0  0  0
  8  9  1  0  0  0  0
  9 10  1  0  0  0  0
  9 11  1  0  0  0  0
  9 12  1  0  0  0  0
  8 13  1  0  0  0  0
 13 14  1  0  0  0  0
 13 15  1  0  0  0  0
 13 16  1  0  0  0  0
  8 17  1  0  0  0  0
 17 18  1  0  0  0  0
 17 19  1  0  0  0  0
 17 20  1  0  0  0  0
  1 21  1  0  0  0  0
 22 23  4  0  0  0  0
 22 24  4  0  0  0  0
 24 25  1  0  0  0  0
 24 26  1  0  0  0  0
 22 27  4  0  0  0  0
 27 28  1  0  0  0  0
 27 29  1  0  0  0  0
 30 31  2  0  0  0  0
 30 32  4  0  0  0  0
 32 33  1  0  0  0  0
 32 34  1  0  0  0  0
 30 35  4  0  0  0  0
 35 36  1  0  0  0  0
 35 37  1  0  0  0  0
 38 39  4  0  0  0  0
 38 40  4  0  0  0  0
 40 41  1  0  0  0  0
 40 42  1  0  0  0  0
 38 43  4  0  0  0  0
 43 44  1  0  0  0  0
 43 45  1  0  0  0  0
 46 47  2  0  0  0  0
 46 48  4  0  0  0  0
 48 49  1  0  0  0  0
 48 50  1  0  0  0  0
 46 51  4  0  0  0  0
 51 52  1  0  0  0  0
 51 53  1  0  0  0  0
M  CHG  1   1   1
M  END
