53
 xtb: 6.6.1 (unknown-commit)
O           -1.94857011952467        0.61749098975166        0.54908483283074
C           -1.59537706850883       -0.63556997235013        1.07221200122839
H           -1.89338556531104       -0.69076774973483        2.12894618980758
H           -2.11112179350263       -1.43752838931853        0.53723147301234
C           -0.09592059131216       -0.92330554349179        0.91751267633762
H            0.14074457511295       -1.01912720079408       -0.14221812474206
H            0.09949157040521       -1.87723210939425        1.40998017489677
N            0.82811670899779        0.09371434594720        1.48480343208490
C            0.90094070530781        1.27428914602129        0.60634046194571
H            1.32978504218437        0.97184141712724       -0.34932919763948
H            1.54686723606361        2.01264549480433        1.07764265628510
H           -0.09600345741166        1.67305286921670        0.45230897856202
C            2.17975855321107       -0.48631620397439        1.55821929718017
H            2.48327638997162       -0.80930694408785        0.56618149315250
H            2.18917742737805       -1.33688385900591        2.24104983602161
H            2.86289973724305        0.27715937809045        1.92651372635516
C            0.41170468312114        0.52638401705429        2.82683658964053
H            0.29775859543065       -0.32920022881698        3.48380479263188
H           -0.53316104279671        1.06714740036218        2.75989180628484
H            1.17362383089959        1.19802189431344        3.22279380159173
H           -2.82387947505560        0.54917715849296        0.11792532700975
C            2.02897217470110       -2.20436824345101       -2.07527465214828
O            2.04675580827005       -1.07895978548794       -1.56646559509680
N            3.16694867897231       -2.93178772779850       -2.20649519785592
H            4.04177412293729       -2.48401488989676       -2.02163940836510
H            3.18320410395478       -3.79101544392182       -2.73462918768496
N            0.88514249491981       -2.78174067434341       -2.46977314617375
H            0.87100543786088       -3.68915858566045       -2.90602611622808
H            0.00977306173995       -2.26265644451165       -2.37275038173438
C            3.74156735509054        3.12888023319734        3.29171483105237
O            2.97663801326335        2.30450835792062        2.80945976663181
N            4.00044853724642        4.31988429077787        2.67972077150546
H            3.32617183647917        4.63436360378000        1.97812167604872
H            4.46320732838783        5.06882000979980        3.19601433565574
N            4.38719345855212        2.90873169778688        4.47260847770919
H            5.15841114775031        3.51848957853130        4.74948409251734
H            4.44719332298907        1.95079295487772        4.79548488083863
C           -1.21285645059275        0.04969943263230       -2.42624207338452
O           -1.34607330866877       -1.14283767578410       -2.11375920039463
N            0.00614898172739        0.56538375230072       -2.67326005758492
H            0.83129506887631       -0.00166981788473       -2.46141853769852
H            0.13078973759648        1.52110808855173       -2.93369643815321
N           -2.27426819539891        0.86492596191626       -2.58214103341735
H           -2.11769657446207        1.84922703937680       -2.71049651383591
H           -3.13569918982496        0.59834143366193       -2.12399298968270
C           -4.70921012881139       -1.10295567183268       -0.99570884438593
O           -4.28752863464331        0.03289032244189       -0.76616286734263
N           -5.99157565810757       -1.43801292789863       -0.72790157149127
H           -6.60712453578975       -0.71471435461888       -0.38649745677955
H           -6.37537612478769       -2.32894787937782       -0.95654295239155
N           -3.90813654015302       -2.07091674833826       -1.47732594479634
H           -4.28128876480151       -2.95300607806249       -1.76854584308032
H           -2.96209872379716       -1.80940855479036       -1.77109694031157
