 xtb: 6.6.1 (unknown-commit)
          01102418273D

 53 48  0     0  0            999 V2000
   -1.9463    0.6225    0.5444 O   0  0  0  0  0  0  0  0  0  0  0  0
   -1.5967   -0.6312    1.0706 C   0  0  0  0  0  0  0  0  0  0  0  0
   -1.8943   -0.6889    2.1284 H   0  0  0  0  0  0  0  0  0  0  0  0
   -2.1117   -1.4362    0.5369 H   0  0  0  0  0  0  0  0  0  0  0  0
   -0.0975   -0.9220    0.9189 C   0  0  0  0  0  0  0  0  0  0  0  0
    0.1408   -1.0196   -0.1416 H   0  0  0  0  0  0  0  0  0  0  0  0
    0.0983   -1.8766    1.4112 H   0  0  0  0  0  0  0  0  0  0  0  0
    0.8273    0.0949    1.4853 N   0  0  0  0  0  0  0  0  0  0  0  0
    0.9043    1.2727    0.6036 C   0  0  0  0  0  0  0  0  0  0  0  0
    1.3309    0.9703   -0.3497 H   0  0  0  0  0  0  0  0  0  0  0  0
    1.5482    2.0121    1.0764 H   0  0  0  0  0  0  0  0  0  0  0  0
   -0.0947    1.6732    0.4508 H   0  0  0  0  0  0  0  0  0  0  0  0
    2.1778   -0.4875    1.5630 C   0  0  0  0  0  0  0  0  0  0  0  0
    2.4831   -0.8106    0.5680 H   0  0  0  0  0  0  0  0  0  0  0  0
    2.1878   -1.3366    2.2432 H   0  0  0  0  0  0  0  0  0  0  0  0
    2.8624    0.2769    1.9277 H   0  0  0  0  0  0  0  0  0  0  0  0
    0.4090    0.5318    2.8253 C   0  0  0  0  0  0  0  0  0  0  0  0
    0.2961   -0.3270    3.4839 H   0  0  0  0  0  0  0  0  0  0  0  0
   -0.5336    1.0692    2.7584 H   0  0  0  0  0  0  0  0  0  0  0  0
    1.1729    1.1994    3.2224 H   0  0  0  0  0  0  0  0  0  0  0  0
   -2.8232    0.5507    0.1164 H   0  0  0  0  0  0  0  0  0  0  0  0
    2.0280   -2.2149   -2.0681 C   0  0  0  0  0  0  0  0  0  0  0  0
    2.0476   -1.0903   -1.5600 O   0  0  0  0  0  0  0  0  0  0  0  0
    3.1645   -2.9458   -2.1963 N   0  0  0  0  0  0  0  0  0  0  0  0
    4.0413   -2.4882   -2.0189 H   0  0  0  0  0  0  0  0  0  0  0  0
    3.1822   -3.7950   -2.7316 H   0  0  0  0  0  0  0  0  0  0  0  0
    0.8833   -2.7913   -2.4624 N   0  0  0  0  0  0  0  0  0  0  0  0
    0.8702   -3.6919   -2.9037 H   0  0  0  0  0  0  0  0  0  0  0  0
    0.0096   -2.2646   -2.3714 H   0  0  0  0  0  0  0  0  0  0  0  0
    3.7383    3.1325    3.2916 C   0  0  0  0  0  0  0  0  0  0  0  0
    2.9762    2.3059    2.8090 O   0  0  0  0  0  0  0  0  0  0  0  0
    3.8751    4.3770    2.7754 N   0  0  0  0  0  0  0  0  0  0  0  0
    3.2686    4.6579    2.0263 H   0  0  0  0  0  0  0  0  0  0  0  0
    4.4295    5.0824    3.2245 H   0  0  0  0  0  0  0  0  0  0  0  0
    4.5013    2.8630    4.3777 N   0  0  0  0  0  0  0  0  0  0  0  0
    5.1883    3.5086    4.7210 H   0  0  0  0  0  0  0  0  0  0  0  0
    4.5024    1.9296    4.7475 H   0  0  0  0  0  0  0  0  0  0  0  0
   -1.2080    0.0457   -2.4285 C   0  0  0  0  0  0  0  0  0  0  0  0
   -1.3442   -1.1462   -2.1135 O   0  0  0  0  0  0  0  0  0  0  0  0
    0.0131    0.5573   -2.6754 N   0  0  0  0  0  0  0  0  0  0  0  0
    0.8327   -0.0042   -2.4613 H   0  0  0  0  0  0  0  0  0  0  0  0
    0.1334    1.5187   -2.9348 H   0  0  0  0  0  0  0  0  0  0  0  0
   -2.2667    0.8630   -2.5879 N   0  0  0  0  0  0  0  0  0  0  0  0
   -2.1150    1.8485   -2.7127 H   0  0  0  0  0  0  0  0  0  0  0  0
   -3.1340    0.5987   -2.1257 H   0  0  0  0  0  0  0  0  0  0  0  0
   -4.7088   -1.0958   -0.9998 C   0  0  0  0  0  0  0  0  0  0  0  0
   -4.2845    0.0407   -0.7733 O   0  0  0  0  0  0  0  0  0  0  0  0
   -5.9923   -1.4266   -0.7331 N   0  0  0  0  0  0  0  0  0  0  0  0
   -6.6070   -0.7110   -0.3885 H   0  0  0  0  0  0  0  0  0  0  0  0
   -6.3761   -2.3258   -0.9574 H   0  0  0  0  0  0  0  0  0  0  0  0
   -3.9095   -2.0662   -1.4786 N   0  0  0  0  0  0  0  0  0  0  0  0
   -4.2821   -2.9517   -1.7684 H   0  0  0  0  0  0  0  0  0  0  0  0
   -2.9622   -1.8090   -1.7713 H   0  0  0  0  0  0  0  0  0  0  0  0
  1  2  1  0  0  0  0
  2  3  1  0  0  0  0
  2  4  1  0  0  0  0
  2  5  1  0  0  0  0
  5  6  1  0  0  0  0
  5  7  1  0  0  0  0
  5  8  1  0  0  0  0
  8  9  1  0  0  0  0
  9 10  1  0  0  0  0
  9 11  1  0  0  0  0
  9 12  1  0  0  0  0
  8 13  1  0  0  0  0
 13 14  1  0  0  0  0
 13 15  1  0  0  0  0
 13 16  1  0  0  0  0
  8 17  1  0  0  0  0
 17 18  1  0  0  0  0
 17 19  1  0  0  0  0
 17 20  1  0  0  0  0
  1 21  1  0  0  0  0
 22 23  4  0  0  0  0
 22 24  1  0  0  0  0
 24 25  1  0  0  0  0
 24 26  1  0  0  0  0
 22 27  4  0  0  0  0
 27 28  1  0  0  0  0
 27 29  1  0  0  0  0
 30 31  2  0  0  0  0
 30 32  4  0  0  0  0
 32 33  1  0  0  0  0
 32 34  1  0  0  0  0
 30 35  4  0  0  0  0
 35 36  1  0  0  0  0
 35 37  1  0  0  0  0
 38 39  4  0  0  0  0
 38 40  4  0  0  0  0
 40 41  1  0  0  0  0
 40 42  1  0  0  0  0
 38 43  4  0  0  0  0
 43 44  1  0  0  0  0
 43 45  1  0  0  0  0
 46 47  4  0  0  0  0
 46 48  4  0  0  0  0
 48 49  1  0  0  0  0
 48 50  1  0  0  0  0
 46 51  4  0  0  0  0
 51 52  1  0  0  0  0
 51 53  1  0  0  0  0
M  CHG  1   1   1
M  END
