  53

 O          0.8754120803       -2.9229446257       -0.3732841093
 C          0.5557500173       -2.4321612356       -1.6470910397
 H          1.3381874472       -1.7583563987       -2.0090482911
 H          0.5207710805       -3.2984007004       -2.3178456347
 C         -0.8286952921       -1.7708485114       -1.7440616909
 H         -1.5695340700       -2.4404765012       -1.2933658786
 H         -1.0538324355       -1.6514719236       -2.8055428731
 N         -1.0098682080       -0.4458025914       -1.0906786282
 C         -2.3562526806        0.0380661551       -1.4459473781
 H         -2.4597835308        0.1116231932       -2.5268164310
 H         -2.5110425321        1.0251937595       -1.0107975136
 H         -3.0988292645       -0.6577468350       -1.0593757696
 C         -0.0057829425        0.5311499108       -1.5359113349
 H          0.9630152185        0.2914183922       -1.1031466105
 H         -0.2980832145        1.5185722000       -1.1843956610
 H          0.0602106980        0.5397619599       -2.6218909608
 C         -0.9531650516       -0.5622998013        0.3772397966
 H          0.0671082072       -0.7449496369        0.7008673131
 H         -1.6032766239       -1.3782475318        0.6910205892
 H         -1.2944624013        0.3715143869        0.8164836659
 H          1.3918728383       -2.2323263016        0.0945535710
 C          3.4256850848       -0.4228868259        0.3213133087
 O          2.2352444982       -0.7336283694        0.4020274734
 N          3.8248641535        0.8581336169        0.3852146149
 H          3.1048708939        1.5852142293        0.3863543366
 H          4.7750209745        1.1168556831        0.1900675501
 N          4.3874206568       -1.3631119997        0.1546689453
 H          5.3635438903       -1.1335336391        0.1998045776
 H          4.1300604781       -2.3324568711        0.2206903676
 C         -1.1771495154        4.0724680247       -0.9797512681
 O         -1.6318135360        3.0589503280       -0.4388226062
 N         -1.9843073398        4.9345493241       -1.6380380315
 H         -2.9766044143        4.7835951649       -1.6032761511
 H         -1.6452356209        5.7968049646       -2.0230328009
 N          0.1395735796        4.3379384910       -0.9849341489
 H          0.5027355183        5.1870905371       -1.3767964817
 H          0.7709924649        3.7306397357       -0.4598360100
 C         -2.5451852577       -4.1044326544        0.6895096785
 O         -2.8138560716       -3.0239859718        0.1742055209
 N         -1.2707049140       -4.5052549054        0.8973964957
 H         -0.5091386540       -3.9710853295        0.4945064817
 H         -1.0695737429       -5.4370833522        1.2112543732
 N         -3.5149350584       -4.9614653257        1.0912716150
 H         -3.3104057662       -5.7974439181        1.6069826141
 H         -4.4693822108       -4.6529277102        1.0426788257
 C          1.1059707666        2.3683667074        1.7382925940
 O          1.6551280545        2.5994716151        0.6560062396
 N         -0.2299427335        2.3890850678        1.8761541195
 H         -0.8012254108        2.6765223145        1.0774541365
 H         -0.6578986359        2.3368145132        2.7824432239
 N          1.8283918506        2.0742237975        2.8439735973
 H          1.3899542389        1.7823352798        3.6980437932
 H          2.8201769832        1.9450386714        2.7522815960
