  53

 O         -0.7161242554       -4.4627510019        0.4346903502
 C         -1.5501933552       -3.3285032820        0.3102884982
 H         -2.2134011551       -3.4366980283       -0.5577200756
 H         -2.1815932977       -3.2138466020        1.1999035193
 C         -0.7336670070       -2.0405168740        0.1968830741
 H         -0.2019327035       -1.8504953289        1.1302949450
 H         -1.4470153056       -1.2379011585       -0.0027474487
 N          0.2864183171       -2.0060338583       -0.8862720652
 C          1.4730196187       -2.7807640651       -0.4897928211
 H          1.8827767020       -2.3490727798        0.4218368176
 H          2.2215963191       -2.7443339100       -1.2782457526
 H          1.1902458025       -3.8121736097       -0.2966677729
 C          0.6791392061       -0.5989836382       -1.0733184037
 H          1.0782525787       -0.2044779576       -0.1408816623
 H         -0.1928657354       -0.0208232833       -1.3751122669
 H          1.4441235100       -0.5241475293       -1.8429239383
 C         -0.2624767413       -2.5190877942       -2.1493824737
 H         -0.4650871524       -3.5834297865       -2.0636862084
 H          0.4562474292       -2.3639118355       -2.9514181567
 H         -1.1789504949       -1.9721129132       -2.3733516796
 H         -1.2370616106       -5.2154255458        0.7302898336
 C          2.6493798443       -0.6178878873        2.6173314986
 O          1.5767378316       -0.9565039240        2.1195845264
 N          3.4159397233        0.3571043785        2.0902045285
 H          3.0364835864        0.9466552926        1.3580320804
 H          4.2204792458        0.6956878440        2.5864322120
 N          3.1385266945       -1.2359137108        3.7203719186
 H          4.0428384097       -1.0222568950        4.0984965824
 H          2.6399652626       -2.0237256995        4.0929790336
 C          2.0777823383        3.0720432864       -0.6255183838
 O          2.2098395041        2.1102832678        0.1379811480
 N          3.1605986450        3.6766756793       -1.1735346627
 H          4.0754559578        3.3872837148       -0.8782490967
 H          3.0812813449        4.5109413810       -1.7252016332
 N          0.8754760363        3.5411638421       -0.9825663606
 H          0.7864695157        4.3464255668       -1.5744056660
 H          0.0256306767        3.1329897311       -0.5832263947
 C         -3.2973564606        0.3896065103       -2.1790518130
 O         -2.4420603900       -0.4052728479       -1.7998567480
 N         -4.1574373333        0.0768216349       -3.1863652303
 H         -4.1748860948       -0.8686952937       -3.5243825877
 H         -4.9418951908        0.6633159887       -3.4060725837
 N         -3.4508962320        1.6081968912       -1.6259354360
 H         -4.0515984413        2.2884993858       -2.0560448392
 H         -2.7191530216        1.9504273096       -1.0005190235
 C         -1.2250685454        1.5620484532        1.0732036270
 O         -1.4013403060        2.3416327080        0.1311254960
 N         -0.0276592723        1.3920884106        1.6487560245
 H          0.7871792516        1.7656649410        1.1564913114
 H          0.1537038227        0.5893611716        2.2313300786
 N         -2.2518741682        0.8148825167        1.5665847542
 H         -2.1512614433        0.3643388081        2.4590010612
 H         -3.1840508922        1.0628585464        1.2811191730
