 xtb: 6.6.1 (unknown-commit)
          01102418343D

 53 48  0     0  0            999 V2000
   -1.6718    0.7995    1.0698 O   0  0  0  0  0  0  0  0  0  0  0  0
   -0.9247    0.0017    1.9512 C   0  0  0  0  0  0  0  0  0  0  0  0
   -0.3179    0.6904    2.5422 H   0  0  0  0  0  0  0  0  0  0  0  0
   -1.5943   -0.5375    2.6342 H   0  0  0  0  0  0  0  0  0  0  0  0
   -0.0601   -1.0639    1.2672 C   0  0  0  0  0  0  0  0  0  0  0  0
   -0.6922   -1.6435    0.5894 H   0  0  0  0  0  0  0  0  0  0  0  0
    0.3147   -1.7319    2.0451 H   0  0  0  0  0  0  0  0  0  0  0  0
    1.0992   -0.5679    0.4828 N   0  0  0  0  0  0  0  0  0  0  0  0
    1.8397   -1.7280   -0.0412 C   0  0  0  0  0  0  0  0  0  0  0  0
    2.2084   -2.3451    0.7756 H   0  0  0  0  0  0  0  0  0  0  0  0
    2.6820   -1.3651   -0.6287 H   0  0  0  0  0  0  0  0  0  0  0  0
    1.1859   -2.3216   -0.6762 H   0  0  0  0  0  0  0  0  0  0  0  0
    2.0131    0.2374    1.3088 C   0  0  0  0  0  0  0  0  0  0  0  0
    2.2584   -0.2897    2.2278 H   0  0  0  0  0  0  0  0  0  0  0  0
    1.5676    1.2046    1.5291 H   0  0  0  0  0  0  0  0  0  0  0  0
    2.9184    0.4180    0.7295 H   0  0  0  0  0  0  0  0  0  0  0  0
    0.6510    0.2346   -0.6681 C   0  0  0  0  0  0  0  0  0  0  0  0
   -0.0382   -0.3518   -1.2717 H   0  0  0  0  0  0  0  0  0  0  0  0
    1.5285    0.5021   -1.2542 H   0  0  0  0  0  0  0  0  0  0  0  0
    0.1721    1.1452   -0.3196 H   0  0  0  0  0  0  0  0  0  0  0  0
   -2.2682    0.2237    0.5537 H   0  0  0  0  0  0  0  0  0  0  0  0
   -1.1713   -3.5382   -1.5734 C   0  0  0  0  0  0  0  0  0  0  0  0
   -1.1897   -2.3043   -1.5127 O   0  0  0  0  0  0  0  0  0  0  0  0
   -1.6650   -4.3011   -0.5875 N   0  0  0  0  0  0  0  0  0  0  0  0
   -2.1175   -3.8463    0.2068 H   0  0  0  0  0  0  0  0  0  0  0  0
   -1.6761   -5.3025   -0.6460 H   0  0  0  0  0  0  0  0  0  0  0  0
   -0.5817   -4.1752   -2.6141 N   0  0  0  0  0  0  0  0  0  0  0  0
   -0.6661   -5.1677   -2.7388 H   0  0  0  0  0  0  0  0  0  0  0  0
   -0.2970   -3.6251   -3.4055 H   0  0  0  0  0  0  0  0  0  0  0  0
    0.2193    3.9719    0.9118 C   0  0  0  0  0  0  0  0  0  0  0  0
    1.0386    3.0949    0.6619 O   0  0  0  0  0  0  0  0  0  0  0  0
   -1.0613    3.6847    1.2262 N   0  0  0  0  0  0  0  0  0  0  0  0
   -1.3759    2.7262    1.1618 H   0  0  0  0  0  0  0  0  0  0  0  0
   -1.7476    4.4069    1.3446 H   0  0  0  0  0  0  0  0  0  0  0  0
    0.5462    5.2895    0.8790 N   0  0  0  0  0  0  0  0  0  0  0  0
   -0.0820    5.9944    1.2200 H   0  0  0  0  0  0  0  0  0  0  0  0
    1.5165    5.5341    0.7926 H   0  0  0  0  0  0  0  0  0  0  0  0
    4.0640    1.8340   -1.4568 C   0  0  0  0  0  0  0  0  0  0  0  0
    3.6651    0.7028   -1.2050 O   0  0  0  0  0  0  0  0  0  0  0  0
    5.1073    2.0455   -2.3010 N   0  0  0  0  0  0  0  0  0  0  0  0
    5.6250    1.2438   -2.6145 H   0  0  0  0  0  0  0  0  0  0  0  0
    5.5347    2.9480   -2.4015 H   0  0  0  0  0  0  0  0  0  0  0  0
    3.4997    2.9420   -0.9286 N   0  0  0  0  0  0  0  0  0  0  0  0
    3.7906    3.8525   -1.2345 H   0  0  0  0  0  0  0  0  0  0  0  0
    2.6502    2.8784   -0.3778 H   0  0  0  0  0  0  0  0  0  0  0  0
   -3.7540   -1.8965    0.8307 C   0  0  0  0  0  0  0  0  0  0  0  0
   -2.9991   -2.7337    1.3047 O   0  0  0  0  0  0  0  0  0  0  0  0
   -4.9628   -1.6305    1.3698 N   0  0  0  0  0  0  0  0  0  0  0  0
   -5.2418   -2.1387    2.1905 H   0  0  0  0  0  0  0  0  0  0  0  0
   -5.5783   -0.9253    1.0079 H   0  0  0  0  0  0  0  0  0  0  0  0
   -3.3817   -1.1154   -0.2348 N   0  0  0  0  0  0  0  0  0  0  0  0
   -4.1061   -0.6529   -0.7604 H   0  0  0  0  0  0  0  0  0  0  0  0
   -2.6133   -1.5009   -0.7978 H   0  0  0  0  0  0  0  0  0  0  0  0
  1  2  1  0  0  0  0
  2  3  1  0  0  0  0
  2  4  1  0  0  0  0
  2  5  1  0  0  0  0
  5  6  1  0  0  0  0
  5  7  1  0  0  0  0
  5  8  1  0  0  0  0
  8  9  1  0  0  0  0
  9 10  1  0  0  0  0
  9 11  1  0  0  0  0
  9 12  1  0  0  0  0
  8 13  1  0  0  0  0
 13 14  1  0  0  0  0
 13 15  1  0  0  0  0
 13 16  1  0  0  0  0
  8 17  1  0  0  0  0
 17 18  1  0  0  0  0
 17 19  1  0  0  0  0
 17 20  1  0  0  0  0
  1 21  1  0  0  0  0
 22 23  4  0  0  0  0
 22 24  4  0  0  0  0
 24 25  1  0  0  0  0
 24 26  1  0  0  0  0
 22 27  4  0  0  0  0
 27 28  1  0  0  0  0
 27 29  1  0  0  0  0
 30 31  2  0  0  0  0
 30 32  4  0  0  0  0
 32 33  1  0  0  0  0
 32 34  1  0  0  0  0
 30 35  1  0  0  0  0
 35 36  1  0  0  0  0
 35 37  1  0  0  0  0
 38 39  2  0  0  0  0
 38 40  1  0  0  0  0
 40 41  1  0  0  0  0
 40 42  1  0  0  0  0
 38 43  4  0  0  0  0
 43 44  1  0  0  0  0
 43 45  1  0  0  0  0
 46 47  2  0  0  0  0
 46 48  4  0  0  0  0
 48 49  1  0  0  0  0
 48 50  1  0  0  0  0
 46 51  1  0  0  0  0
 51 52  1  0  0  0  0
 51 53  1  0  0  0  0
M  CHG  1   1   1
M  END
