  53

 O         -1.7499112570        0.1457655599       -0.2508663776
 C         -1.7582258075       -0.3169894124       -1.5729357829
 H         -2.7231589374       -0.8078952702       -1.7157976431
 H         -1.6952601623        0.5284803065       -2.2707206869
 C         -0.5987417101       -1.2667483161       -1.9078703556
 H          0.3128481486       -0.8971016080       -1.4238763720
 H         -0.4541100244       -1.2739591287       -2.9895365456
 N         -0.7569094396       -2.6794814575       -1.4633229244
 C          0.4798238561       -3.3966506244       -1.8221811037
 H          1.3268935281       -2.9089826875       -1.3394902630
 H          0.6217778627       -3.3871499508       -2.9010366432
 H          0.4217551110       -4.4288099405       -1.4834839685
 C         -1.9069105726       -3.3331520878       -2.1106757395
 H         -1.8674055024       -4.4040594668       -1.9225611423
 H         -1.8825369648       -3.1630371690       -3.1848910103
 H         -2.8391414417       -2.9544394070       -1.6937716579
 C         -0.9269565043       -2.7222979635       -0.0021968399
 H         -0.9521426537       -3.7566335802        0.3330724983
 H         -1.8695356275       -2.2451422230        0.2622678719
 H         -0.0877779492       -2.2080898595        0.4631739834
 H         -0.9513583633        0.7111765820       -0.0938370291
 C          3.0591726884        3.9876246564        0.1475842402
 O          3.6168754634        3.0246214900        0.6833618010
 N          3.7088989325        5.1566564969       -0.0361612413
 H          4.6732022721        5.2161723626        0.2383448399
 H          3.2947429115        5.9353800594       -0.5142034304
 N          1.7916234919        3.9107868391       -0.2995191139
 H          1.3092500935        4.7250515338       -0.6335417209
 H          1.2424406888        3.0827878249       -0.0690354896
 C          2.8351156976       -0.4699852364        0.0258899706
 O          1.9736365445       -1.3188667778       -0.1894940093
 N          3.7217081275       -0.5930661049        1.0476184722
 H          3.8177601607       -1.4933441788        1.4840658334
 H          4.4988035534        0.0417018508        1.1068663904
 N          2.9783948589        0.6408976759       -0.7320864585
 H          3.4660266819        1.4359464590       -0.3308638945
 H          2.2039452764        0.8783731371       -1.3303768863
 C         -4.8239798737       -1.4432785654        0.3474296751
 O         -4.0624682703       -2.1722871986       -0.2752674536
 N         -4.4102858997       -0.2658773405        0.8774362847
 H         -3.5061322303        0.0762747032        0.5771711133
 H         -5.0749524537        0.4031533999        1.2222261007
 N         -6.1222871657       -1.7710430143        0.5576174311
 H         -6.7086594635       -1.2420393540        1.1770088832
 H         -6.4257994866       -2.6912227924        0.2923907118
 C          0.7309836887        1.1239629508        1.6236962506
 O          0.4179466420        1.5296581623        0.4942494844
 N          1.8226320203        1.5675388302        2.2600022430
 H          2.5133630111        2.1195994895        1.7446739584
 H          2.1078684698        1.1578451559        3.1308080115
 N         -0.0321579911        0.2121403295        2.2689700894
 H          0.1587418267       -0.0491864980        3.2186504513
 H         -0.9134474287       -0.0550559734        1.8637414597
