  53

 O         -2.6564818971       -1.5366323815       -2.0797476346
 C         -1.9005106656       -0.3662767983       -2.3599258249
 H         -1.8322324811       -0.2152161338       -3.4444779720
 H         -2.3842975668        0.5140313079       -1.9203595387
 C         -0.5304756799       -0.4358073614       -1.7024534910
 H         -0.6687316375       -0.6942117940       -0.6528181023
 H         -0.0778002266        0.5561540770       -1.7613079772
 N          0.4599038273       -1.4034744834       -2.2472146249
 C          0.7812918581       -1.0936520778       -3.6464417247
 H         -0.0867419891       -1.2475686615       -4.2828815636
 H          1.5843218511       -1.7403282258       -3.9957776581
 H          1.1045693375       -0.0561799930       -3.7165006796
 C         -0.0321043239       -2.7828295382       -2.1151670770
 H          0.7117734323       -3.4831661372       -2.4895230898
 H         -0.9596361501       -2.9087559489       -2.6672246321
 H         -0.2198684011       -2.9818159954       -1.0600441025
 C          1.6824294943       -1.2589424388       -1.4347014821
 H          1.4456809833       -1.4795143304       -0.3962663885
 H          2.0484415932       -0.2365750597       -1.5105312690
 H          2.4457733345       -1.9490389949       -1.7871834603
 H         -3.5723716320       -1.3847654285       -2.3335266550
 C          1.7775316651       -0.6576255749        3.5291320795
 O          0.8037484645        0.1001651571        3.5136234226
 N          2.7586238146       -0.5215724717        4.4472760424
 H          2.6932914197        0.2274383762        5.1130181785
 H          3.5725815940       -1.1077262428        4.4593989477
 N          1.9235200540       -1.6310436267        2.6084906580
 H          2.6288566136       -2.3373893671        2.7145970786
 H          1.1222836201       -1.8269148681        2.0027535891
 C         -0.9868197005        1.7140310374        0.8795841449
 O         -1.5561481361        2.0782391302       -0.1509366648
 N         -1.6645320716        1.5392732451        2.0478407030
 H         -2.5684684020        1.9734020120        2.1213370521
 H         -1.1295812301        1.4203199991        2.8927318119
 N          0.3189423643        1.4035680421        0.9259989017
 H          0.7123021012        1.0375920400        1.7806677059
 H          0.8839302417        1.4886449292        0.0925067881
 C         -1.4383047781       -1.7943865711        1.5517259178
 O         -0.3564332316       -1.9584168810        0.9734246316
 N         -2.6045993595       -2.0492358136        0.9197326019
 H         -2.6008863509       -2.2365510424       -0.0716602561
 H         -3.4854820779       -1.8679665540        1.3645977769
 N         -1.5063696928       -1.4085275086        2.8385627280
 H         -2.3961055729       -1.1722274400        3.2407140818
 H         -0.6886773006       -0.9404141579        3.2264099643
 C          1.2478252190        2.9613092861       -2.1487905766
 O          1.5399494211        1.8163136584       -1.7887922814
 N          0.0377457185        3.4892608961       -1.9190168232
 H         -0.6204426937        2.9855612636       -1.3129189255
 H         -0.1659273948        4.4429655332       -2.1561080662
 N          2.1231503650        3.7117329048       -2.8641084360
 H          1.9473589353        4.6801656328       -3.0607914814
 H          3.0620719993        3.3725840391       -2.9750295679
