  53

 O          0.2487928477        0.2349926299        1.6778879753
 C          1.2435822308       -0.6636953821        2.0825534817
 H          2.1314798914       -0.0728279135        2.3232821755
 H          0.9249245504       -1.1810913030        3.0007915006
 C          1.5515732659       -1.7611747729        1.0573402388
 H          0.5955176487       -2.1914771296        0.7458800356
 H          2.1495201753       -2.5321591259        1.5477501161
 N          2.2708993533       -1.3329971981       -0.1697847609
 C          2.4168134768       -2.4990026760       -1.0573127599
 H          2.9794799251       -3.2876676844       -0.5610353259
 H          2.9498216508       -2.1883430325       -1.9551631207
 H          1.4357474343       -2.8793608141       -1.3347678309
 C          3.6129482097       -0.8159489670        0.1438427757
 H          4.1642749888       -1.5327047635        0.7479941725
 H          3.5381142300        0.1372393942        0.6612431278
 H          4.1340692509       -0.6425900334       -0.7978557926
 C          1.5125269533       -0.2989097954       -0.8958753662
 H          0.4804991252       -0.6173406640       -1.0235430846
 H          1.9879915242       -0.1435522211       -1.8624105822
 H          1.5460983945        0.6355341271       -0.3412821418
 H         -0.4280954688       -0.2784847427        1.1581029800
 C         -2.5777077080       -1.2537750658        0.4251826580
 O         -1.3560870059       -1.3072144027        0.2237609463
 N         -3.4518970278       -2.0348565220       -0.2310172489
 H         -3.1343175897       -2.6137513519       -0.9863324299
 H         -4.4400881622       -1.9002867751       -0.0663248459
 N         -3.1232183630       -0.4289422132        1.3372279893
 H         -4.1255651356       -0.4132946595        1.4462927028
 H         -2.5411268022        0.1748870691        1.8887513074
 C          2.3794128494        3.1314001052        0.9181513910
 O          2.9339572689        2.2054798775        0.3334449670
 N          1.2366367709        2.9589770682        1.6091647928
 H          0.7980302102        2.0452602973        1.6284331434
 H          0.7713853748        3.7258221350        2.0579279462
 N          2.8748424010        4.3959002289        0.8804669738
 H          2.5071960553        5.1213453694        1.4688419729
 H          3.7899727678        4.5326162831        0.4895903046
 C          4.3424098116        0.9512147121       -3.1117527465
 O          3.9268663747       -0.1594807401       -2.8023618973
 N          4.8711090851        1.1923295426       -4.3397380893
 H          5.0282034851        0.4048873585       -4.9434013161
 H          5.3442210796        2.0507151046       -4.5554139879
 N          4.2995102352        2.0087653899       -2.2717029411
 H          4.5616662036        2.9221810040       -2.5944893000
 H          3.8208507623        1.9463197816       -1.3801964554
 C         -7.1357818959       -1.2068370378        1.0262029464
 O         -5.9282768018       -1.0847454634        0.8697216734
 N         -7.9308109231       -0.1569857634        1.3436731498
 H         -7.5293354495        0.7637423730        1.3257359703
 H         -8.9316396359       -0.2330673132        1.3471286380
 N         -7.7639023462       -2.4006212409        0.8932684135
 H         -8.7288167628       -2.5197655068        1.1427379814
 H         -7.2014940351       -3.2266011444        0.7899218435
