 xtb: 6.6.1 (unknown-commit)
          01102418323D

 53 48  0     0  0            999 V2000
    0.2488    0.2350    1.6779 O   0  0  0  0  0  0  0  0  0  0  0  0
    1.2436   -0.6637    2.0826 C   0  0  0  0  0  0  0  0  0  0  0  0
    2.1315   -0.0728    2.3233 H   0  0  0  0  0  0  0  0  0  0  0  0
    0.9249   -1.1811    3.0008 H   0  0  0  0  0  0  0  0  0  0  0  0
    1.5516   -1.7612    1.0573 C   0  0  0  0  0  0  0  0  0  0  0  0
    0.5955   -2.1915    0.7459 H   0  0  0  0  0  0  0  0  0  0  0  0
    2.1495   -2.5322    1.5477 H   0  0  0  0  0  0  0  0  0  0  0  0
    2.2709   -1.3330   -0.1698 N   0  0  0  0  0  0  0  0  0  0  0  0
    2.4168   -2.4990   -1.0573 C   0  0  0  0  0  0  0  0  0  0  0  0
    2.9795   -3.2877   -0.5610 H   0  0  0  0  0  0  0  0  0  0  0  0
    2.9498   -2.1884   -1.9552 H   0  0  0  0  0  0  0  0  0  0  0  0
    1.4357   -2.8794   -1.3348 H   0  0  0  0  0  0  0  0  0  0  0  0
    3.6129   -0.8160    0.1438 C   0  0  0  0  0  0  0  0  0  0  0  0
    4.1643   -1.5327    0.7480 H   0  0  0  0  0  0  0  0  0  0  0  0
    3.5381    0.1372    0.6612 H   0  0  0  0  0  0  0  0  0  0  0  0
    4.1341   -0.6426   -0.7979 H   0  0  0  0  0  0  0  0  0  0  0  0
    1.5125   -0.2989   -0.8959 C   0  0  0  0  0  0  0  0  0  0  0  0
    0.4805   -0.6173   -1.0235 H   0  0  0  0  0  0  0  0  0  0  0  0
    1.9880   -0.1436   -1.8624 H   0  0  0  0  0  0  0  0  0  0  0  0
    1.5461    0.6355   -0.3413 H   0  0  0  0  0  0  0  0  0  0  0  0
   -0.4281   -0.2785    1.1581 H   0  0  0  0  0  0  0  0  0  0  0  0
   -2.5777   -1.2538    0.4252 C   0  0  0  0  0  0  0  0  0  0  0  0
   -1.3561   -1.3072    0.2238 O   0  0  0  0  0  0  0  0  0  0  0  0
   -3.4519   -2.0348   -0.2310 N   0  0  0  0  0  0  0  0  0  0  0  0
   -3.1343   -2.6137   -0.9863 H   0  0  0  0  0  0  0  0  0  0  0  0
   -4.4401   -1.9003   -0.0663 H   0  0  0  0  0  0  0  0  0  0  0  0
   -3.1232   -0.4289    1.3372 N   0  0  0  0  0  0  0  0  0  0  0  0
   -4.1256   -0.4133    1.4463 H   0  0  0  0  0  0  0  0  0  0  0  0
   -2.5411    0.1749    1.8888 H   0  0  0  0  0  0  0  0  0  0  0  0
    2.3794    3.1314    0.9181 C   0  0  0  0  0  0  0  0  0  0  0  0
    2.9340    2.2055    0.3334 O   0  0  0  0  0  0  0  0  0  0  0  0
    1.2367    2.9590    1.6092 N   0  0  0  0  0  0  0  0  0  0  0  0
    0.7980    2.0453    1.6284 H   0  0  0  0  0  0  0  0  0  0  0  0
    0.7714    3.7258    2.0579 H   0  0  0  0  0  0  0  0  0  0  0  0
    2.8749    4.3959    0.8804 N   0  0  0  0  0  0  0  0  0  0  0  0
    2.5072    5.1213    1.4688 H   0  0  0  0  0  0  0  0  0  0  0  0
    3.7900    4.5326    0.4896 H   0  0  0  0  0  0  0  0  0  0  0  0
    4.3424    0.9512   -3.1118 C   0  0  0  0  0  0  0  0  0  0  0  0
    3.9269   -0.1595   -2.8024 O   0  0  0  0  0  0  0  0  0  0  0  0
    4.8711    1.1923   -4.3398 N   0  0  0  0  0  0  0  0  0  0  0  0
    5.0282    0.4049   -4.9434 H   0  0  0  0  0  0  0  0  0  0  0  0
    5.3442    2.0507   -4.5554 H   0  0  0  0  0  0  0  0  0  0  0  0
    4.2995    2.0087   -2.2717 N   0  0  0  0  0  0  0  0  0  0  0  0
    4.5617    2.9222   -2.5945 H   0  0  0  0  0  0  0  0  0  0  0  0
    3.8209    1.9463   -1.3802 H   0  0  0  0  0  0  0  0  0  0  0  0
   -7.1358   -1.2068    1.0262 C   0  0  0  0  0  0  0  0  0  0  0  0
   -5.9283   -1.0847    0.8697 O   0  0  0  0  0  0  0  0  0  0  0  0
   -7.9308   -0.1569    1.3437 N   0  0  0  0  0  0  0  0  0  0  0  0
   -7.5293    0.7638    1.3258 H   0  0  0  0  0  0  0  0  0  0  0  0
   -8.9316   -0.2330    1.3472 H   0  0  0  0  0  0  0  0  0  0  0  0
   -7.7639   -2.4006    0.8933 N   0  0  0  0  0  0  0  0  0  0  0  0
   -8.7288   -2.5197    1.1428 H   0  0  0  0  0  0  0  0  0  0  0  0
   -7.2015   -3.2266    0.7900 H   0  0  0  0  0  0  0  0  0  0  0  0
  1  2  1  0  0  0  0
  2  3  1  0  0  0  0
  2  4  1  0  0  0  0
  2  5  1  0  0  0  0
  5  6  1  0  0  0  0
  5  7  1  0  0  0  0
  5  8  1  0  0  0  0
  8  9  1  0  0  0  0
  9 10  1  0  0  0  0
  9 11  1  0  0  0  0
  9 12  1  0  0  0  0
  8 13  1  0  0  0  0
 13 14  1  0  0  0  0
 13 15  1  0  0  0  0
 13 16  1  0  0  0  0
  8 17  1  0  0  0  0
 17 18  1  0  0  0  0
 17 19  1  0  0  0  0
 17 20  1  0  0  0  0
  1 21  1  0  0  0  0
 22 23  4  0  0  0  0
 22 24  4  0  0  0  0
 24 25  1  0  0  0  0
 24 26  1  0  0  0  0
 22 27  4  0  0  0  0
 27 28  1  0  0  0  0
 27 29  1  0  0  0  0
 30 31  2  0  0  0  0
 30 32  4  0  0  0  0
 32 33  1  0  0  0  0
 32 34  1  0  0  0  0
 30 35  1  0  0  0  0
 35 36  1  0  0  0  0
 35 37  1  0  0  0  0
 38 39  2  0  0  0  0
 38 40  1  0  0  0  0
 40 41  1  0  0  0  0
 40 42  1  0  0  0  0
 38 43  4  0  0  0  0
 43 44  1  0  0  0  0
 43 45  1  0  0  0  0
 46 47  2  0  0  0  0
 46 48  4  0  0  0  0
 48 49  1  0  0  0  0
 48 50  1  0  0  0  0
 46 51  4  0  0  0  0
 51 52  1  0  0  0  0
 51 53  1  0  0  0  0
M  CHG  1   1   1
M  END
