 xtb: 6.6.1 (unknown-commit)
          01102418313D

 53 48  0     0  0            999 V2000
   -0.5025    0.8729   -1.3111 O   0  0  0  0  0  0  0  0  0  0  0  0
    0.4574    1.0550   -0.2904 C   0  0  0  0  0  0  0  0  0  0  0  0
    1.1787    0.2381   -0.2828 H   0  0  0  0  0  0  0  0  0  0  0  0
    0.9933    1.9760   -0.5402 H   0  0  0  0  0  0  0  0  0  0  0  0
   -0.1591    1.2774    1.0964 C   0  0  0  0  0  0  0  0  0  0  0  0
   -1.0886    1.8375    0.9716 H   0  0  0  0  0  0  0  0  0  0  0  0
    0.5554    1.8595    1.6810 H   0  0  0  0  0  0  0  0  0  0  0  0
   -0.4876    0.0696    1.9062 N   0  0  0  0  0  0  0  0  0  0  0  0
   -1.3895   -0.8352    1.1813 C   0  0  0  0  0  0  0  0  0  0  0  0
   -2.2752   -0.2774    0.8776 H   0  0  0  0  0  0  0  0  0  0  0  0
   -1.6878   -1.6541    1.8332 H   0  0  0  0  0  0  0  0  0  0  0  0
   -0.8921   -1.2500    0.3082 H   0  0  0  0  0  0  0  0  0  0  0  0
   -1.1786    0.5520    3.1144 C   0  0  0  0  0  0  0  0  0  0  0  0
   -1.4243   -0.2859    3.7641 H   0  0  0  0  0  0  0  0  0  0  0  0
   -2.0980    1.0596    2.8253 H   0  0  0  0  0  0  0  0  0  0  0  0
   -0.5333    1.2417    3.6543 H   0  0  0  0  0  0  0  0  0  0  0  0
    0.7320   -0.6510    2.3030 C   0  0  0  0  0  0  0  0  0  0  0  0
    0.4826   -1.4290    3.0208 H   0  0  0  0  0  0  0  0  0  0  0  0
    1.4379    0.0524    2.7451 H   0  0  0  0  0  0  0  0  0  0  0  0
    1.2067   -1.1073    1.4368 H   0  0  0  0  0  0  0  0  0  0  0  0
   -0.6154   -0.0826   -1.4976 H   0  0  0  0  0  0  0  0  0  0  0  0
    2.7859   -2.1241   -1.0786 C   0  0  0  0  0  0  0  0  0  0  0  0
    2.4978   -1.3769   -0.1487 O   0  0  0  0  0  0  0  0  0  0  0  0
    4.0738   -2.4723   -1.3341 N   0  0  0  0  0  0  0  0  0  0  0  0
    4.7671   -2.2408   -0.6445 H   0  0  0  0  0  0  0  0  0  0  0  0
    4.2988   -3.1995   -1.9889 H   0  0  0  0  0  0  0  0  0  0  0  0
    1.8541   -2.6429   -1.9048 N   0  0  0  0  0  0  0  0  0  0  0  0
    2.1297   -3.1341   -2.7359 H   0  0  0  0  0  0  0  0  0  0  0  0
    0.8982   -2.3094   -1.8471 H   0  0  0  0  0  0  0  0  0  0  0  0
    3.6532    1.7685    1.9554 C   0  0  0  0  0  0  0  0  0  0  0  0
    2.5434    1.7659    2.4689 O   0  0  0  0  0  0  0  0  0  0  0  0
    4.0907    0.7811    1.1384 N   0  0  0  0  0  0  0  0  0  0  0  0
    3.4494    0.0691    0.8107 H   0  0  0  0  0  0  0  0  0  0  0  0
    4.9488    0.8964    0.6299 H   0  0  0  0  0  0  0  0  0  0  0  0
    4.5327    2.7853    2.1677 N   0  0  0  0  0  0  0  0  0  0  0  0
    5.4993    2.7054    1.9074 H   0  0  0  0  0  0  0  0  0  0  0  0
    4.3015    3.4499    2.8854 H   0  0  0  0  0  0  0  0  0  0  0  0
   -3.8109    1.9150   -0.2591 C   0  0  0  0  0  0  0  0  0  0  0  0
   -3.3291    1.5264    0.7943 O   0  0  0  0  0  0  0  0  0  0  0  0
   -5.0311    2.4931   -0.3225 N   0  0  0  0  0  0  0  0  0  0  0  0
   -5.5494    2.6127    0.5295 H   0  0  0  0  0  0  0  0  0  0  0  0
   -5.4316    2.8289   -1.1789 H   0  0  0  0  0  0  0  0  0  0  0  0
   -3.1765    1.7154   -1.4566 N   0  0  0  0  0  0  0  0  0  0  0  0
   -3.4780    2.2630   -2.2462 H   0  0  0  0  0  0  0  0  0  0  0  0
   -2.1652    1.5662   -1.3977 H   0  0  0  0  0  0  0  0  0  0  0  0
   -1.9989   -2.0777   -2.3629 C   0  0  0  0  0  0  0  0  0  0  0  0
   -0.9320   -1.7635   -1.8293 O   0  0  0  0  0  0  0  0  0  0  0  0
   -2.1559   -3.2801   -2.9565 N   0  0  0  0  0  0  0  0  0  0  0  0
   -1.4050   -3.9455   -2.9129 H   0  0  0  0  0  0  0  0  0  0  0  0
   -3.0304   -3.5741   -3.3511 H   0  0  0  0  0  0  0  0  0  0  0  0
   -3.0633   -1.2547   -2.3782 N   0  0  0  0  0  0  0  0  0  0  0  0
   -3.9097   -1.5129   -2.8517 H   0  0  0  0  0  0  0  0  0  0  0  0
   -2.9965   -0.3177   -2.0011 H   0  0  0  0  0  0  0  0  0  0  0  0
  1  2  1  0  0  0  0
  2  3  1  0  0  0  0
  2  4  1  0  0  0  0
  2  5  1  0  0  0  0
  5  6  1  0  0  0  0
  5  7  1  0  0  0  0
  5  8  1  0  0  0  0
  8  9  1  0  0  0  0
  9 10  1  0  0  0  0
  9 11  1  0  0  0  0
  9 12  1  0  0  0  0
  8 13  1  0  0  0  0
 13 14  1  0  0  0  0
 13 15  1  0  0  0  0
 13 16  1  0  0  0  0
  8 17  1  0  0  0  0
 17 18  1  0  0  0  0
 17 19  1  0  0  0  0
 17 20  1  0  0  0  0
  1 21  1  0  0  0  0
 22 23  2  0  0  0  0
 22 24  1  0  0  0  0
 24 25  1  0  0  0  0
 24 26  1  0  0  0  0
 22 27  4  0  0  0  0
 27 28  1  0  0  0  0
 27 29  1  0  0  0  0
 30 31  2  0  0  0  0
 30 32  4  0  0  0  0
 32 33  1  0  0  0  0
 32 34  1  0  0  0  0
 30 35  1  0  0  0  0
 35 36  1  0  0  0  0
 35 37  1  0  0  0  0
 38 39  2  0  0  0  0
 38 40  4  0  0  0  0
 40 41  1  0  0  0  0
 40 42  1  0  0  0  0
 38 43  1  0  0  0  0
 43 44  1  0  0  0  0
 43 45  1  0  0  0  0
 46 47  4  0  0  0  0
 46 48  4  0  0  0  0
 48 49  1  0  0  0  0
 48 50  1  0  0  0  0
 46 51  4  0  0  0  0
 51 52  1  0  0  0  0
 51 53  1  0  0  0  0
M  CHG  1   1   1
M  END
