 xtb: 6.6.1 (unknown-commit)
          01102418313D

 53 48  0     0  0            999 V2000
    0.9607    1.0690    0.8619 O   0  0  0  0  0  0  0  0  0  0  0  0
    1.4104    0.0667    1.7331 C   0  0  0  0  0  0  0  0  0  0  0  0
    2.2650   -0.4593    1.3016 H   0  0  0  0  0  0  0  0  0  0  0  0
    1.7532    0.5903    2.6301 H   0  0  0  0  0  0  0  0  0  0  0  0
    0.2853   -0.9119    2.1340 C   0  0  0  0  0  0  0  0  0  0  0  0
   -0.6643   -0.4942    1.7835 H   0  0  0  0  0  0  0  0  0  0  0  0
    0.2475   -1.0023    3.2207 H   0  0  0  0  0  0  0  0  0  0  0  0
    0.3783   -2.2903    1.5804 N   0  0  0  0  0  0  0  0  0  0  0  0
    0.3510   -2.2434    0.1101 C   0  0  0  0  0  0  0  0  0  0  0  0
   -0.5304   -1.6903   -0.2092 H   0  0  0  0  0  0  0  0  0  0  0  0
    0.3104   -3.2548   -0.2879 H   0  0  0  0  0  0  0  0  0  0  0  0
    1.2513   -1.7600   -0.2651 H   0  0  0  0  0  0  0  0  0  0  0  0
   -0.8038   -3.0330    2.0511 C   0  0  0  0  0  0  0  0  0  0  0  0
   -1.6996   -2.5161    1.7017 H   0  0  0  0  0  0  0  0  0  0  0  0
   -0.8112   -3.0839    3.1381 H   0  0  0  0  0  0  0  0  0  0  0  0
   -0.7904   -4.0448    1.6511 H   0  0  0  0  0  0  0  0  0  0  0  0
    1.5991   -2.9758    2.0352 C   0  0  0  0  0  0  0  0  0  0  0  0
    1.5450   -4.0289    1.7661 H   0  0  0  0  0  0  0  0  0  0  0  0
    1.6972   -2.8919    3.1154 H   0  0  0  0  0  0  0  0  0  0  0  0
    2.4757   -2.5493    1.5513 H   0  0  0  0  0  0  0  0  0  0  0  0
    0.8830    0.7221   -0.0566 H   0  0  0  0  0  0  0  0  0  0  0  0
    4.1752   -1.1200   -0.8481 C   0  0  0  0  0  0  0  0  0  0  0  0
    3.4752   -1.6404    0.0136 O   0  0  0  0  0  0  0  0  0  0  0  0
    5.5295   -1.2146   -0.8174 N   0  0  0  0  0  0  0  0  0  0  0  0
    5.9437   -1.8358   -0.1452 H   0  0  0  0  0  0  0  0  0  0  0  0
    6.0959   -0.9181   -1.5912 H   0  0  0  0  0  0  0  0  0  0  0  0
    3.6468   -0.4302   -1.8830 N   0  0  0  0  0  0  0  0  0  0  0  0
    4.2377    0.1389   -2.4624 H   0  0  0  0  0  0  0  0  0  0  0  0
    2.6582   -0.1897   -1.8332 H   0  0  0  0  0  0  0  0  0  0  0  0
   -3.6448   -0.6122    0.3170 C   0  0  0  0  0  0  0  0  0  0  0  0
   -2.5295   -0.9900    0.6605 O   0  0  0  0  0  0  0  0  0  0  0  0
   -4.7355   -1.4169    0.4557 N   0  0  0  0  0  0  0  0  0  0  0  0
   -4.5981   -2.3746    0.7238 H   0  0  0  0  0  0  0  0  0  0  0  0
   -5.6254   -1.1669    0.0651 H   0  0  0  0  0  0  0  0  0  0  0  0
   -3.8758    0.6001   -0.2162 N   0  0  0  0  0  0  0  0  0  0  0  0
   -4.8144    0.9133   -0.3853 H   0  0  0  0  0  0  0  0  0  0  0  0
   -3.1392    1.3003   -0.2175 H   0  0  0  0  0  0  0  0  0  0  0  0
    0.1829    0.6403   -2.6251 C   0  0  0  0  0  0  0  0  0  0  0  0
    0.8833    0.2150   -1.7009 O   0  0  0  0  0  0  0  0  0  0  0  0
   -0.8703    1.4391   -2.4307 N   0  0  0  0  0  0  0  0  0  0  0  0
   -1.1168    1.7918   -1.5076 H   0  0  0  0  0  0  0  0  0  0  0  0
   -1.3977    1.7931   -3.2078 H   0  0  0  0  0  0  0  0  0  0  0  0
    0.4707    0.3107   -3.9104 N   0  0  0  0  0  0  0  0  0  0  0  0
   -0.1386    0.5571   -4.6686 H   0  0  0  0  0  0  0  0  0  0  0  0
    1.1887   -0.3703   -4.0823 H   0  0  0  0  0  0  0  0  0  0  0  0
   -1.7088    3.5039    0.6677 C   0  0  0  0  0  0  0  0  0  0  0  0
   -2.0211    2.7216   -0.2315 O   0  0  0  0  0  0  0  0  0  0  0  0
   -2.4819    4.5825    0.9519 N   0  0  0  0  0  0  0  0  0  0  0  0
   -3.2509    4.7922    0.3412 H   0  0  0  0  0  0  0  0  0  0  0  0
   -2.1914    5.2867    1.6052 H   0  0  0  0  0  0  0  0  0  0  0  0
   -0.6241    3.3189    1.4332 N   0  0  0  0  0  0  0  0  0  0  0  0
   -0.3590    3.9804    2.1393 H   0  0  0  0  0  0  0  0  0  0  0  0
   -0.0243    2.5172    1.2527 H   0  0  0  0  0  0  0  0  0  0  0  0
  1  2  1  0  0  0  0
  2  3  1  0  0  0  0
  2  4  1  0  0  0  0
  2  5  1  0  0  0  0
  5  6  1  0  0  0  0
  5  7  1  0  0  0  0
  5  8  1  0  0  0  0
  8  9  1  0  0  0  0
  9 10  1  0  0  0  0
  9 11  1  0  0  0  0
  9 12  1  0  0  0  0
  8 13  1  0  0  0  0
 13 14  1  0  0  0  0
 13 15  1  0  0  0  0
 13 16  1  0  0  0  0
  8 17  1  0  0  0  0
 17 18  1  0  0  0  0
 17 19  1  0  0  0  0
 17 20  1  0  0  0  0
  1 21  1  0  0  0  0
 22 23  2  0  0  0  0
 22 24  1  0  0  0  0
 24 25  1  0  0  0  0
 24 26  1  0  0  0  0
 22 27  4  0  0  0  0
 27 28  1  0  0  0  0
 27 29  1  0  0  0  0
 30 31  2  0  0  0  0
 30 32  1  0  0  0  0
 32 33  1  0  0  0  0
 32 34  1  0  0  0  0
 30 35  4  0  0  0  0
 35 36  1  0  0  0  0
 35 37  1  0  0  0  0
 38 39  4  0  0  0  0
 38 40  4  0  0  0  0
 40 41  1  0  0  0  0
 40 42  1  0  0  0  0
 38 43  4  0  0  0  0
 43 44  1  0  0  0  0
 43 45  1  0  0  0  0
 46 47  4  0  0  0  0
 46 48  4  0  0  0  0
 48 49  1  0  0  0  0
 48 50  1  0  0  0  0
 46 51  4  0  0  0  0
 51 52  1  0  0  0  0
 51 53  1  0  0  0  0
M  CHG  1   1   1
M  END
