  53

 O         -1.8117852442       -0.6000293399        1.4351686631
 C         -0.6883257986       -1.4289822613        1.5342651073
 H         -0.4832993756       -1.5507649334        2.6006617880
 H         -0.8930921289       -2.4239181733        1.1198191456
 C          0.5405887459       -0.8931677270        0.7836364467
 H          0.2562056215       -0.6736320077       -0.2490846322
 H          1.3021183462       -1.6749072792        0.7839067599
 N          1.1521294448        0.3521840853        1.3197578635
 C          0.2207337147        1.4846461473        1.1838647295
 H         -0.0086736270        1.6252822846        0.1299441266
 H          0.7000578563        2.3776369322        1.5802058920
 H         -0.7010382655        1.2746486235        1.7214209798
 C          2.3496494627        0.6545662789        0.5163681355
 H          2.0605908008        0.7501819432       -0.5292678213
 H          3.0828774184       -0.1425478468        0.6186073566
 H          2.7779968667        1.5903425838        0.8727873550
 C          1.5453259886        0.2196811584        2.7299413541
 H          2.1844040714       -0.6510339518        2.8625520954
 H          0.6649154015        0.1206608926        3.3594109147
 H          2.0871750057        1.1197107214        3.0200486696
 H         -2.1697808477       -0.6767045107        0.5297808093
 C          0.1007502149       -3.3290462890       -1.5216231164
 O         -0.6243768962       -3.9622801369       -0.7606717582
 N          1.4030745105       -3.6857927978       -1.7240651263
 H          1.6573767944       -4.6136506380       -1.4267771704
 H          1.8924390731       -3.3258704071       -2.5256006564
 N         -0.3253724398       -2.2295575682       -2.1772330047
 H          0.3304807825       -1.5911664651       -2.5950951124
 H         -1.2104182229       -1.8292515499       -1.8722115631
 C          3.1887024951        4.1047447792        2.9650202217
 O          2.6819210543        3.1087179608        2.4664191377
 N          4.3434515692        4.6375338947        2.4995068676
 H          4.8448279512        4.1470033170        1.7810795313
 H          4.8078853698        5.3940099691        2.9673040033
 N          2.6307164840        4.7468094883        4.0187860299
 H          2.9968001897        5.6119945769        4.3711065243
 H          1.7297897000        4.4466388391        4.3450505471
 C         -0.4160866681        1.2244889603       -2.7243855554
 O          0.3857491535        0.6443413085       -1.9968360994
 N         -0.0003888355        2.0836838660       -3.6883824746
 H          0.9787943279        2.2940462076       -3.7579225695
 H         -0.6427347502        2.6224465577       -4.2393263862
 N         -1.7506249675        1.0717107597       -2.6020660232
 H         -2.3720224638        1.4649429468       -3.2855891847
 H         -2.1162323937        0.3358527198       -2.0080469914
 C         -3.6287507448       -2.0551735928       -1.0208816399
 O         -2.7541000967       -1.1726596123       -1.0917551902
 N         -4.9361318436       -1.7327193951       -1.1456797609
 H         -5.1930620770       -0.7627168307       -1.1886406869
 H         -5.6626111420       -2.4091898133       -0.9977223343
 N         -3.3180300873       -3.3371300450       -0.8350478426
 H         -4.0266541298       -4.0464813465       -0.7928219296
 H         -2.3311676237       -3.6228984928       -0.7758670630
