 xtb: 6.6.1 (unknown-commit)
          01102415363D

 53 48  0     0  0            999 V2000
   -2.2909   -1.1013   -0.1501 O   0  0  0  0  0  0  0  0  0  0  0  0
   -2.1735    0.0900   -0.8750 C   0  0  0  0  0  0  0  0  0  0  0  0
   -2.9949    0.0994   -1.5961 H   0  0  0  0  0  0  0  0  0  0  0  0
   -2.3056    0.9589   -0.2178 H   0  0  0  0  0  0  0  0  0  0  0  0
   -0.8237    0.2872   -1.5820 C   0  0  0  0  0  0  0  0  0  0  0  0
   -0.0112    0.2652   -0.8504 H   0  0  0  0  0  0  0  0  0  0  0  0
   -0.8510    1.2597   -2.0764 H   0  0  0  0  0  0  0  0  0  0  0  0
   -0.4722   -0.7177   -2.6245 N   0  0  0  0  0  0  0  0  0  0  0  0
   -0.2099   -2.0260   -2.0045 C   0  0  0  0  0  0  0  0  0  0  0  0
    0.6290   -1.9195   -1.3169 H   0  0  0  0  0  0  0  0  0  0  0  0
    0.0402   -2.7565   -2.7709 H   0  0  0  0  0  0  0  0  0  0  0  0
   -1.0904   -2.3536   -1.4562 H   0  0  0  0  0  0  0  0  0  0  0  0
    0.7588   -0.2471   -3.2841 C   0  0  0  0  0  0  0  0  0  0  0  0
    1.5409   -0.1386   -2.5342 H   0  0  0  0  0  0  0  0  0  0  0  0
    0.5593    0.7093   -3.7638 H   0  0  0  0  0  0  0  0  0  0  0  0
    1.0771   -0.9696   -4.0325 H   0  0  0  0  0  0  0  0  0  0  0  0
   -1.5356   -0.8302   -3.6326 C   0  0  0  0  0  0  0  0  0  0  0  0
   -1.7527    0.1650   -4.0202 H   0  0  0  0  0  0  0  0  0  0  0  0
   -2.4293   -1.2663   -3.1940 H   0  0  0  0  0  0  0  0  0  0  0  0
   -1.2008   -1.4684   -4.4482 H   0  0  0  0  0  0  0  0  0  0  0  0
   -1.7535   -1.0284    0.6732 H   0  0  0  0  0  0  0  0  0  0  0  0
    2.5406   -0.3311    0.6162 C   0  0  0  0  0  0  0  0  0  0  0  0
    2.0236   -0.5200   -0.4825 O   0  0  0  0  0  0  0  0  0  0  0  0
    1.8185    0.0205    1.7013 N   0  0  0  0  0  0  0  0  0  0  0  0
    0.8194   -0.1397    1.6617 H   0  0  0  0  0  0  0  0  0  0  0  0
    2.2124   -0.0567    2.6289 H   0  0  0  0  0  0  0  0  0  0  0  0
    3.8800   -0.4352    0.8024 N   0  0  0  0  0  0  0  0  0  0  0  0
    4.3028   -0.1778    1.6755 H   0  0  0  0  0  0  0  0  0  0  0  0
    4.4719   -0.5465   -0.0011 H   0  0  0  0  0  0  0  0  0  0  0  0
   -1.1744    3.3199   -4.6212 C   0  0  0  0  0  0  0  0  0  0  0  0
   -1.0556    2.2276   -4.0829 O   0  0  0  0  0  0  0  0  0  0  0  0
   -0.2533    4.3016   -4.4705 N   0  0  0  0  0  0  0  0  0  0  0  0
    0.5077    4.1552   -3.8321 H   0  0  0  0  0  0  0  0  0  0  0  0
   -0.3903    5.2238   -4.8411 H   0  0  0  0  0  0  0  0  0  0  0  0
   -2.2340    3.6281   -5.4062 N   0  0  0  0  0  0  0  0  0  0  0  0
   -2.2848    4.4883   -5.9202 H   0  0  0  0  0  0  0  0  0  0  0  0
   -2.9013    2.9092   -5.6206 H   0  0  0  0  0  0  0  0  0  0  0  0
   -0.5440   -2.2967    2.4234 C   0  0  0  0  0  0  0  0  0  0  0  0
   -0.8041   -1.1212    2.1126 O   0  0  0  0  0  0  0  0  0  0  0  0
    0.4043   -2.5929    3.3142 N   0  0  0  0  0  0  0  0  0  0  0  0
    0.9386   -1.8380    3.7598 H   0  0  0  0  0  0  0  0  0  0  0  0
    0.6145   -3.5431    3.5589 H   0  0  0  0  0  0  0  0  0  0  0  0
   -1.1964   -3.3239    1.8317 N   0  0  0  0  0  0  0  0  0  0  0  0
   -1.0844   -4.2679    2.1542 H   0  0  0  0  0  0  0  0  0  0  0  0
   -1.9815   -3.1136    1.2389 H   0  0  0  0  0  0  0  0  0  0  0  0
    0.8728    0.3807    4.9819 C   0  0  0  0  0  0  0  0  0  0  0  0
    1.6731   -0.4419    4.5335 O   0  0  0  0  0  0  0  0  0  0  0  0
   -0.3404    0.5701    4.4300 N   0  0  0  0  0  0  0  0  0  0  0  0
   -0.5885    0.0534    3.5919 H   0  0  0  0  0  0  0  0  0  0  0  0
   -0.9742    1.2669    4.7744 H   0  0  0  0  0  0  0  0  0  0  0  0
    1.1854    1.1538    6.0475 N   0  0  0  0  0  0  0  0  0  0  0  0
    0.5148    1.7583    6.4852 H   0  0  0  0  0  0  0  0  0  0  0  0
    2.0482    0.9702    6.5281 H   0  0  0  0  0  0  0  0  0  0  0  0
  1  2  1  0  0  0  0
  2  3  1  0  0  0  0
  2  4  1  0  0  0  0
  2  5  1  0  0  0  0
  5  6  1  0  0  0  0
  5  7  1  0  0  0  0
  5  8  1  0  0  0  0
  8  9  1  0  0  0  0
  9 10  1  0  0  0  0
  9 11  1  0  0  0  0
  9 12  1  0  0  0  0
  8 13  1  0  0  0  0
 13 14  1  0  0  0  0
 13 15  1  0  0  0  0
 13 16  1  0  0  0  0
  8 17  1  0  0  0  0
 17 18  1  0  0  0  0
 17 19  1  0  0  0  0
 17 20  1  0  0  0  0
  1 21  1  0  0  0  0
 22 23  2  0  0  0  0
 22 24  4  0  0  0  0
 24 25  1  0  0  0  0
 24 26  1  0  0  0  0
 22 27  4  0  0  0  0
 27 28  1  0  0  0  0
 27 29  1  0  0  0  0
 30 31  2  0  0  0  0
 30 32  4  0  0  0  0
 32 33  1  0  0  0  0
 32 34  1  0  0  0  0
 30 35  4  0  0  0  0
 35 36  1  0  0  0  0
 35 37  1  0  0  0  0
 38 39  4  0  0  0  0
 38 40  4  0  0  0  0
 40 41  1  0  0  0  0
 40 42  1  0  0  0  0
 38 43  4  0  0  0  0
 43 44  1  0  0  0  0
 43 45  1  0  0  0  0
 46 47  4  0  0  0  0
 46 48  4  0  0  0  0
 48 49  1  0  0  0  0
 48 50  1  0  0  0  0
 46 51  4  0  0  0  0
 51 52  1  0  0  0  0
 51 53  1  0  0  0  0
M  CHG  1   1   1
M  END
