  53

 O          1.4677359788        1.1870266148       -0.9735527129
 C          1.8029810756        1.2522975010        0.3840337995
 H          2.5466670931        0.4708473120        0.5550872776
 H          2.2685879356        2.2197801400        0.6168425445
 C          0.6079674862        1.0955975978        1.3364054836
 H         -0.2002749970        1.7504771434        0.9996557454
 H          0.9216659076        1.4137481310        2.3327187295
 N          0.0422892917       -0.2721277830        1.4520775747
 C         -0.4576417349       -0.7426486489        0.1502069455
 H         -1.1750358955       -0.0313245272       -0.2492715177
 H         -0.9309792500       -1.7121626044        0.2995424863
 H          0.3724474402       -0.8595095670       -0.5416196089
 C         -1.0888552039       -0.2250740037        2.3956160072
 H         -0.7372100317        0.0411474680        3.3903760152
 H         -1.5545480329       -1.2082355931        2.4317631995
 H         -1.8135633871        0.5188466884        2.0651534786
 C          1.0331539944       -1.2366030691        1.9566039288
 H          1.5013634998       -0.8608269561        2.8633006908
 H          1.7837278091       -1.4393479586        1.1963842678
 H          0.5143281592       -2.1721649375        2.1647839047
 H          0.9159235556        1.9628477232       -1.2046188917
 C          2.8250600100       -2.1130996780       -1.7603439951
 O          2.1506182728       -2.2752035021       -0.7477493856
 N          3.4646976371       -3.1483659007       -2.3646044720
 H          3.5074359027       -4.0261929281       -1.8781493405
 H          4.1283789258       -2.9938893258       -3.1018488529
 N          2.9628192826       -0.9065630187       -2.3436973695
 H          3.4521189923       -0.7959212612       -3.2124910904
 H          2.4330402910       -0.1219596348       -1.9851659209
 C         -0.0392283412        4.4068778038       -0.4796817861
 O         -0.0441639551        3.4268936892       -1.2329952547
 N          0.7729440043        5.4617399582       -0.7163246780
 H          1.2903616291        5.4785976289       -1.5775542900
 H          0.7191924731        6.3073029158       -0.1782820162
 N         -0.7892913675        4.4449718368        0.6333296447
 H         -0.8445009371        5.2686653862        1.2036348109
 H         -1.4391959447        3.6775742517        0.8125586713
 C         -0.6092138200       -4.4818737898        0.9367165540
 O         -1.0034290404       -3.4538133395        1.4745968614
 N          0.5028607166       -4.5270003000        0.1707091609
 H          1.0044617855       -3.6786597966       -0.0691280485
 H          0.7402706739       -5.3653788470       -0.3272637949
 N         -1.2822838103       -5.6548034790        1.0716048633
 H         -0.8930869140       -6.5279138550        0.7657522462
 H         -2.0389705388       -5.6849632895        1.7317116956
 C         -3.0703856255        1.9472621951       -0.2028469214
 O         -2.4402688069        2.1800689038        0.8326116635
 N         -4.3358560632        1.4723988650       -0.1604609209
 H         -4.7911042469        1.3978400865        0.7317282540
 H         -4.8846467267        1.3366598153       -0.9893706538
 N         -2.5036032149        2.0766973270       -1.4163756387
 H         -3.0453444622        1.9925840451       -2.2571222620
 H         -1.5897481630        2.5294284689       -1.4719048676
