 xtb: 6.6.1 (unknown-commit)
          01102415343D

 53 48  0     0  0            999 V2000
    1.4677    1.1870   -0.9736 O   0  0  0  0  0  0  0  0  0  0  0  0
    1.8030    1.2523    0.3840 C   0  0  0  0  0  0  0  0  0  0  0  0
    2.5467    0.4708    0.5551 H   0  0  0  0  0  0  0  0  0  0  0  0
    2.2686    2.2198    0.6168 H   0  0  0  0  0  0  0  0  0  0  0  0
    0.6080    1.0956    1.3364 C   0  0  0  0  0  0  0  0  0  0  0  0
   -0.2003    1.7505    0.9997 H   0  0  0  0  0  0  0  0  0  0  0  0
    0.9217    1.4137    2.3327 H   0  0  0  0  0  0  0  0  0  0  0  0
    0.0423   -0.2721    1.4521 N   0  0  0  0  0  0  0  0  0  0  0  0
   -0.4576   -0.7426    0.1502 C   0  0  0  0  0  0  0  0  0  0  0  0
   -1.1750   -0.0313   -0.2493 H   0  0  0  0  0  0  0  0  0  0  0  0
   -0.9310   -1.7122    0.2995 H   0  0  0  0  0  0  0  0  0  0  0  0
    0.3724   -0.8595   -0.5416 H   0  0  0  0  0  0  0  0  0  0  0  0
   -1.0888   -0.2251    2.3956 C   0  0  0  0  0  0  0  0  0  0  0  0
   -0.7372    0.0412    3.3904 H   0  0  0  0  0  0  0  0  0  0  0  0
   -1.5545   -1.2082    2.4318 H   0  0  0  0  0  0  0  0  0  0  0  0
   -1.8136    0.5189    2.0652 H   0  0  0  0  0  0  0  0  0  0  0  0
    1.0332   -1.2366    1.9566 C   0  0  0  0  0  0  0  0  0  0  0  0
    1.5014   -0.8608    2.8633 H   0  0  0  0  0  0  0  0  0  0  0  0
    1.7837   -1.4394    1.1964 H   0  0  0  0  0  0  0  0  0  0  0  0
    0.5143   -2.1722    2.1648 H   0  0  0  0  0  0  0  0  0  0  0  0
    0.9159    1.9628   -1.2046 H   0  0  0  0  0  0  0  0  0  0  0  0
    2.8250   -2.1131   -1.7604 C   0  0  0  0  0  0  0  0  0  0  0  0
    2.1506   -2.2752   -0.7478 O   0  0  0  0  0  0  0  0  0  0  0  0
    3.4647   -3.1484   -2.3646 N   0  0  0  0  0  0  0  0  0  0  0  0
    3.5074   -4.0262   -1.8782 H   0  0  0  0  0  0  0  0  0  0  0  0
    4.1284   -2.9939   -3.1019 H   0  0  0  0  0  0  0  0  0  0  0  0
    2.9628   -0.9066   -2.3437 N   0  0  0  0  0  0  0  0  0  0  0  0
    3.4521   -0.7959   -3.2125 H   0  0  0  0  0  0  0  0  0  0  0  0
    2.4330   -0.1220   -1.9852 H   0  0  0  0  0  0  0  0  0  0  0  0
   -0.0392    4.4069   -0.4797 C   0  0  0  0  0  0  0  0  0  0  0  0
   -0.0442    3.4269   -1.2330 O   0  0  0  0  0  0  0  0  0  0  0  0
    0.7730    5.4617   -0.7163 N   0  0  0  0  0  0  0  0  0  0  0  0
    1.2904    5.4786   -1.5776 H   0  0  0  0  0  0  0  0  0  0  0  0
    0.7192    6.3073   -0.1783 H   0  0  0  0  0  0  0  0  0  0  0  0
   -0.7893    4.4450    0.6333 N   0  0  0  0  0  0  0  0  0  0  0  0
   -0.8445    5.2687    1.2036 H   0  0  0  0  0  0  0  0  0  0  0  0
   -1.4392    3.6776    0.8126 H   0  0  0  0  0  0  0  0  0  0  0  0
   -0.6092   -4.4819    0.9367 C   0  0  0  0  0  0  0  0  0  0  0  0
   -1.0034   -3.4538    1.4746 O   0  0  0  0  0  0  0  0  0  0  0  0
    0.5028   -4.5270    0.1707 N   0  0  0  0  0  0  0  0  0  0  0  0
    1.0044   -3.6787   -0.0691 H   0  0  0  0  0  0  0  0  0  0  0  0
    0.7402   -5.3654   -0.3273 H   0  0  0  0  0  0  0  0  0  0  0  0
   -1.2823   -5.6548    1.0716 N   0  0  0  0  0  0  0  0  0  0  0  0
   -0.8931   -6.5279    0.7658 H   0  0  0  0  0  0  0  0  0  0  0  0
   -2.0390   -5.6849    1.7317 H   0  0  0  0  0  0  0  0  0  0  0  0
   -3.0704    1.9473   -0.2028 C   0  0  0  0  0  0  0  0  0  0  0  0
   -2.4403    2.1801    0.8326 O   0  0  0  0  0  0  0  0  0  0  0  0
   -4.3358    1.4724   -0.1604 N   0  0  0  0  0  0  0  0  0  0  0  0
   -4.7911    1.3979    0.7317 H   0  0  0  0  0  0  0  0  0  0  0  0
   -4.8846    1.3367   -0.9894 H   0  0  0  0  0  0  0  0  0  0  0  0
   -2.5036    2.0767   -1.4164 N   0  0  0  0  0  0  0  0  0  0  0  0
   -3.0453    1.9926   -2.2571 H   0  0  0  0  0  0  0  0  0  0  0  0
   -1.5897    2.5294   -1.4719 H   0  0  0  0  0  0  0  0  0  0  0  0
  1  2  1  0  0  0  0
  2  3  1  0  0  0  0
  2  4  1  0  0  0  0
  2  5  1  0  0  0  0
  5  6  1  0  0  0  0
  5  7  1  0  0  0  0
  5  8  1  0  0  0  0
  8  9  1  0  0  0  0
  9 10  1  0  0  0  0
  9 11  1  0  0  0  0
  9 12  1  0  0  0  0
  8 13  1  0  0  0  0
 13 14  1  0  0  0  0
 13 15  1  0  0  0  0
 13 16  1  0  0  0  0
  8 17  1  0  0  0  0
 17 18  1  0  0  0  0
 17 19  1  0  0  0  0
 17 20  1  0  0  0  0
  1 21  1  0  0  0  0
 22 23  2  0  0  0  0
 22 24  1  0  0  0  0
 24 25  1  0  0  0  0
 24 26  1  0  0  0  0
 22 27  4  0  0  0  0
 27 28  1  0  0  0  0
 27 29  1  0  0  0  0
 30 31  4  0  0  0  0
 30 32  4  0  0  0  0
 32 33  1  0  0  0  0
 32 34  1  0  0  0  0
 30 35  4  0  0  0  0
 35 36  1  0  0  0  0
 35 37  1  0  0  0  0
 38 39  2  0  0  0  0
 38 40  4  0  0  0  0
 40 41  1  0  0  0  0
 40 42  1  0  0  0  0
 38 43  1  0  0  0  0
 43 44  1  0  0  0  0
 43 45  1  0  0  0  0
 46 47  4  0  0  0  0
 46 48  4  0  0  0  0
 48 49  1  0  0  0  0
 48 50  1  0  0  0  0
 46 51  4  0  0  0  0
 51 52  1  0  0  0  0
 51 53  1  0  0  0  0
M  CHG  1   1   1
M  END
