  53

 O          0.4719411339       -0.4427691655       -1.6681478628
 C          0.5794487507        0.4723905910       -0.6037010964
 H          1.6198963903        0.4470593171       -0.2755851357
 H          0.3590868940        1.4895988830       -0.9522017283
 C         -0.3631074349        0.2100042799        0.5737669681
 H         -1.3952129461        0.1746625634        0.2208512373
 H         -0.2319675394        1.0419118649        1.2684959710
 N         -0.1285430374       -1.0426698645        1.3438260365
 C         -0.3676367599       -2.2222415678        0.4997098487
 H         -1.3943589781       -2.2142089342        0.1407348547
 H         -0.1952689075       -3.1300504866        1.0746684850
 H          0.3032083542       -2.2018382113       -0.3565186897
 C         -1.0874927953       -1.0409737541        2.4624143139
 H         -0.9966384341       -1.9630411402        3.0332488877
 H         -2.1035063834       -0.9539248289        2.0755921836
 H         -0.8781278422       -0.1957586239        3.1146381171
 C          1.2365062708       -1.0876288440        1.8911421256
 H          1.3325738057       -1.9309608991        2.5707958323
 H          1.4296795750       -0.1556590060        2.4245714703
 H          1.9737679168       -1.1839026074        1.0970836525
 H         -0.4130640616       -0.3462186455       -2.0747783700
 C          4.0855662765       -0.6737943129       -1.0673654106
 O          3.5922770826       -0.2934048455       -0.0099249470
 N          5.4293020051       -0.7205235635       -1.2486165118
 H          6.0178121318       -0.5697277627       -0.4483435867
 H          5.8368793108       -1.1650727168       -2.0511639775
 N          3.3291014280       -1.0748213764       -2.1125858208
 H          3.7454562755       -1.2620093976       -3.0066865701
 H          2.3306732385       -0.9120938724       -2.0857070462
 C          2.3815952260        2.4845514547        2.4792678475
 O          1.3311347012        1.8588945853        2.5533499610
 N          3.4749428100        2.0144487568        1.8403822094
 H          3.4310574471        1.1654494158        1.2921705586
 H          4.2854672407        2.5951710666        1.7250376982
 N          2.5115173747        3.7200460678        3.0350860714
 H          3.4095745061        4.1581128553        3.1337079890
 H          1.7742699281        4.0336114105        3.6417334983
 C         -4.0156178914       -1.7774667082       -0.1727555151
 O         -3.5705405917       -0.8354423459        0.4879804755
 N         -3.5541139309       -2.0497337953       -1.4086125460
 H         -2.9712634600       -1.3431512025       -1.8633205221
 H         -4.0026952455       -2.7348581631       -1.9895408558
 N         -4.9218087555       -2.6355760776        0.3499158628
 H         -5.3553010488       -3.3540072185       -0.2006033512
 H         -5.3117945979       -2.4268640122        1.2519011023
 C         -2.6033906035        1.2251986809       -2.2206077225
 O         -2.0902891464        0.1202184352       -2.4273473522
 N         -2.3964933821        2.2592421951       -3.0685036428
 H         -1.9257736283        2.0723370444       -3.9365331913
 H         -2.8973846384        3.1246661796       -2.9804273857
 N         -3.3444667532        1.4668265688       -1.1278534429
 H         -3.7788845122        2.3565883303       -0.9672444509
 H         -3.4982025275        0.7130857843       -0.4578795073
