 xtb: 6.6.1 (unknown-commit)
          01102418253D

 53 48  0     0  0            999 V2000
    0.4719   -0.4428   -1.6681 O   0  0  0  0  0  0  0  0  0  0  0  0
    0.5794    0.4724   -0.6037 C   0  0  0  0  0  0  0  0  0  0  0  0
    1.6199    0.4471   -0.2756 H   0  0  0  0  0  0  0  0  0  0  0  0
    0.3591    1.4896   -0.9522 H   0  0  0  0  0  0  0  0  0  0  0  0
   -0.3631    0.2100    0.5738 C   0  0  0  0  0  0  0  0  0  0  0  0
   -1.3952    0.1747    0.2209 H   0  0  0  0  0  0  0  0  0  0  0  0
   -0.2320    1.0419    1.2685 H   0  0  0  0  0  0  0  0  0  0  0  0
   -0.1285   -1.0427    1.3438 N   0  0  0  0  0  0  0  0  0  0  0  0
   -0.3676   -2.2222    0.4997 C   0  0  0  0  0  0  0  0  0  0  0  0
   -1.3944   -2.2142    0.1407 H   0  0  0  0  0  0  0  0  0  0  0  0
   -0.1953   -3.1300    1.0747 H   0  0  0  0  0  0  0  0  0  0  0  0
    0.3032   -2.2018   -0.3565 H   0  0  0  0  0  0  0  0  0  0  0  0
   -1.0875   -1.0410    2.4624 C   0  0  0  0  0  0  0  0  0  0  0  0
   -0.9966   -1.9630    3.0333 H   0  0  0  0  0  0  0  0  0  0  0  0
   -2.1035   -0.9539    2.0756 H   0  0  0  0  0  0  0  0  0  0  0  0
   -0.8781   -0.1957    3.1146 H   0  0  0  0  0  0  0  0  0  0  0  0
    1.2365   -1.0876    1.8911 C   0  0  0  0  0  0  0  0  0  0  0  0
    1.3326   -1.9310    2.5708 H   0  0  0  0  0  0  0  0  0  0  0  0
    1.4297   -0.1557    2.4246 H   0  0  0  0  0  0  0  0  0  0  0  0
    1.9738   -1.1839    1.0971 H   0  0  0  0  0  0  0  0  0  0  0  0
   -0.4131   -0.3462   -2.0748 H   0  0  0  0  0  0  0  0  0  0  0  0
    4.0856   -0.6738   -1.0674 C   0  0  0  0  0  0  0  0  0  0  0  0
    3.5923   -0.2934   -0.0099 O   0  0  0  0  0  0  0  0  0  0  0  0
    5.4293   -0.7206   -1.2486 N   0  0  0  0  0  0  0  0  0  0  0  0
    6.0178   -0.5698   -0.4484 H   0  0  0  0  0  0  0  0  0  0  0  0
    5.8369   -1.1651   -2.0512 H   0  0  0  0  0  0  0  0  0  0  0  0
    3.3291   -1.0748   -2.1126 N   0  0  0  0  0  0  0  0  0  0  0  0
    3.7454   -1.2620   -3.0067 H   0  0  0  0  0  0  0  0  0  0  0  0
    2.3307   -0.9121   -2.0857 H   0  0  0  0  0  0  0  0  0  0  0  0
    2.3816    2.4845    2.4793 C   0  0  0  0  0  0  0  0  0  0  0  0
    1.3312    1.8589    2.5533 O   0  0  0  0  0  0  0  0  0  0  0  0
    3.4750    2.0144    1.8404 N   0  0  0  0  0  0  0  0  0  0  0  0
    3.4311    1.1654    1.2922 H   0  0  0  0  0  0  0  0  0  0  0  0
    4.2855    2.5952    1.7250 H   0  0  0  0  0  0  0  0  0  0  0  0
    2.5115    3.7200    3.0351 N   0  0  0  0  0  0  0  0  0  0  0  0
    3.4096    4.1581    3.1337 H   0  0  0  0  0  0  0  0  0  0  0  0
    1.7743    4.0336    3.6417 H   0  0  0  0  0  0  0  0  0  0  0  0
   -4.0156   -1.7774   -0.1727 C   0  0  0  0  0  0  0  0  0  0  0  0
   -3.5705   -0.8354    0.4880 O   0  0  0  0  0  0  0  0  0  0  0  0
   -3.5541   -2.0497   -1.4086 N   0  0  0  0  0  0  0  0  0  0  0  0
   -2.9713   -1.3431   -1.8633 H   0  0  0  0  0  0  0  0  0  0  0  0
   -4.0027   -2.7348   -1.9895 H   0  0  0  0  0  0  0  0  0  0  0  0
   -4.9218   -2.6355    0.3499 N   0  0  0  0  0  0  0  0  0  0  0  0
   -5.3553   -3.3540   -0.2006 H   0  0  0  0  0  0  0  0  0  0  0  0
   -5.3118   -2.4268    1.2519 H   0  0  0  0  0  0  0  0  0  0  0  0
   -2.6034    1.2252   -2.2206 C   0  0  0  0  0  0  0  0  0  0  0  0
   -2.0903    0.1202   -2.4273 O   0  0  0  0  0  0  0  0  0  0  0  0
   -2.3965    2.2592   -3.0685 N   0  0  0  0  0  0  0  0  0  0  0  0
   -1.9258    2.0723   -3.9365 H   0  0  0  0  0  0  0  0  0  0  0  0
   -2.8974    3.1247   -2.9804 H   0  0  0  0  0  0  0  0  0  0  0  0
   -3.3445    1.4668   -1.1278 N   0  0  0  0  0  0  0  0  0  0  0  0
   -3.7789    2.3566   -0.9672 H   0  0  0  0  0  0  0  0  0  0  0  0
   -3.4982    0.7131   -0.4579 H   0  0  0  0  0  0  0  0  0  0  0  0
  1  2  1  0  0  0  0
  2  3  1  0  0  0  0
  2  4  1  0  0  0  0
  2  5  1  0  0  0  0
  5  6  1  0  0  0  0
  5  7  1  0  0  0  0
  5  8  1  0  0  0  0
  8  9  1  0  0  0  0
  9 10  1  0  0  0  0
  9 11  1  0  0  0  0
  9 12  1  0  0  0  0
  8 13  1  0  0  0  0
 13 14  1  0  0  0  0
 13 15  1  0  0  0  0
 13 16  1  0  0  0  0
  8 17  1  0  0  0  0
 17 18  1  0  0  0  0
 17 19  1  0  0  0  0
 17 20  1  0  0  0  0
  1 21  1  0  0  0  0
 22 23  2  0  0  0  0
 22 24  4  0  0  0  0
 24 25  1  0  0  0  0
 24 26  1  0  0  0  0
 22 27  4  0  0  0  0
 27 28  1  0  0  0  0
 27 29  1  0  0  0  0
 30 31  2  0  0  0  0
 30 32  4  0  0  0  0
 32 33  1  0  0  0  0
 32 34  1  0  0  0  0
 30 35  1  0  0  0  0
 35 36  1  0  0  0  0
 35 37  1  0  0  0  0
 38 39  4  0  0  0  0
 38 40  4  0  0  0  0
 40 41  1  0  0  0  0
 40 42  1  0  0  0  0
 38 43  4  0  0  0  0
 43 44  1  0  0  0  0
 43 45  1  0  0  0  0
 46 47  4  0  0  0  0
 46 48  4  0  0  0  0
 48 49  1  0  0  0  0
 48 50  1  0  0  0  0
 46 51  4  0  0  0  0
 51 52  1  0  0  0  0
 51 53  1  0  0  0  0
M  CHG  1   1   1
M  END
