  53

 O          0.5291473965        1.9819334681        0.6478832349
 C          1.5243222498        1.1302631169        0.1491073065
 H          1.8685871928        1.4881271452       -0.8326548709
 H          2.3694216027        1.2030540238        0.8385353305
 C          1.0855125024       -0.3168035433       -0.0655538827
 H          1.9106947185       -0.8575656752       -0.5379413097
 H          0.2281252791       -0.3297162473       -0.7410089404
 N          0.7050578478       -1.1052522964        1.1393091352
 C          0.4052429191       -2.4727001586        0.6758014185
 H          0.0389780428       -3.0770890935        1.5023114439
 H          1.3171072466       -2.9125327987        0.2735295907
 H         -0.3395439406       -2.4393353756       -0.1168706768
 C         -0.4896182891       -0.5527676790        1.7932813133
 H         -0.3068416893        0.4473465110        2.1849198437
 H         -0.7933057538       -1.1959938507        2.6165749723
 H         -1.3005072570       -0.4947407205        1.0709540519
 C          1.8243670801       -1.1688155384        2.0892928491
 H          2.0142541495       -0.1870877333        2.5161236266
 H          2.7113258828       -1.5258481975        1.5672324475
 H          1.5831510252       -1.8569794869        2.8972433501
 H         -0.3077916701        1.8160997306        0.1582217749
 C          3.1757669895       -3.0299387132       -1.8282668454
 O          3.1114399182       -2.4984833424       -0.7247143669
 N          4.2870668879       -3.6962122766       -2.2288534018
 H          5.0950518815       -3.6685039215       -1.6332552206
 H          4.3959170742       -4.0501947647       -3.1612060021
 N          2.1526721001       -3.0005360431       -2.7093862954
 H          2.2132332668       -3.5028669506       -3.5757964687
 H          1.2617285494       -2.5830989173       -2.4569192168
 C         -0.6317204320        3.0413402714        3.7073533790
 O         -1.2816018355        2.0919374969        3.2773959024
 N          0.4521279070        3.5133834928        3.0559074617
 H          0.6189757393        3.1463666415        2.1262330800
 H          0.8869311738        4.3785871960        3.3202457802
 N         -0.9598405363        3.6611946568        4.8676239111
 H         -0.3565345355        4.3414799218        5.2928378278
 H         -1.6801562610        3.2499586625        5.4344803748
 C         -0.9661330299       -1.1614480264       -3.2563499080
 O         -0.4509157800       -1.7527169003       -2.3129591037
 N         -1.6661718483       -0.0185612983       -3.1008077431
 H         -1.6563633072        0.4471826667       -2.1924213535
 H         -1.9228556184        0.5251992101       -3.9054152420
 N         -0.8531724112       -1.6223659247       -4.5323944863
 H         -1.4113231418       -1.2371725725       -5.2733371886
 H         -0.5060092989       -2.5564236426       -4.6619217812
 C         -2.8937418084        1.6587267339       -0.1308918713
 O         -1.8053819399        1.2726085879       -0.5783468109
 N         -4.0042169182        1.6365814771       -0.9057075014
 H         -3.9324912510        1.3351704125       -1.8604901729
 H         -4.8893655250        1.9749405121       -0.5765091367
 N         -3.0401346868        2.1081108972        1.1193133352
 H         -3.9449596802        2.3756539565        1.4622562995
 H         -2.2803492491        2.0698400325        1.8004124039
