  53

 O          1.6976481184       -0.4947269377       -1.2535798452
 C          0.3463983882       -0.1409151560       -1.0382507874
 H          0.3317842731        0.8409565982       -0.5623051568
 H         -0.1572548713       -0.0457303128       -2.0099985193
 C         -0.4433221801       -1.1736294504       -0.2410567268
 H         -0.2104006422       -2.1617093657       -0.6464069962
 H         -1.5105097654       -0.9748454374       -0.3599494861
 N         -0.1904495213       -1.2278024568        1.2258804773
 C         -0.7093008225       -0.0183305178        1.8816894994
 H         -1.7623800068        0.0937043588        1.6294368766
 H         -0.1600433158        0.8546123381        1.5419159065
 H         -0.5959389658       -0.1086945687        2.9596096578
 C          1.2428950700       -1.3688034170        1.5192792706
 H          1.3819746870       -1.5670262686        2.5804540973
 H          1.7550323896       -0.4417793085        1.2687994894
 H          1.6617733376       -2.1901714626        0.9404205455
 C         -0.9259537177       -2.3927777074        1.7442576175
 H         -0.5437847380       -3.3060553942        1.2923923019
 H         -1.9818858900       -2.2769349189        1.5023194744
 H         -0.8101807844       -2.4562606171        2.8243685503
 H          1.7585404741       -1.4775558378       -1.2556256615
 C          2.4174427433       -3.7408877214       -2.0837988872
 O          1.8007572773       -3.2095975545       -1.1620739516
 N          2.9786550027       -3.0157302469       -3.0756863208
 H          2.8692792824       -2.0162342343       -3.0726690837
 H          3.4604561083       -3.4432988049       -3.8446932608
 N          2.5680686217       -5.0789278235       -2.1607481985
 H          3.0874352679       -5.5217813185       -2.8959474305
 H          2.1860641929       -5.6519964717       -1.4299739373
 C         -1.4314813683        3.4193460827        0.4624274486
 O         -1.5811796129        2.3082931576       -0.0332855049
 N         -0.2779574420        3.8032783958        1.0416427243
 H          0.4757302085        3.1289212077        1.1440582420
 H         -0.2020459513        4.6858684207        1.5125044395
 N         -2.4378035761        4.3377909271        0.4787255389
 H         -2.2698393240        5.2920044456        0.7412506498
 H         -3.2629382162        4.1449164561       -0.0601136356
 C          2.9451408242        2.1650602570        0.7780852014
 O          1.8325450200        1.9120113862        1.2341075285
 N          3.5386669731        1.3723138087       -0.1365354853
 H          2.9633811371        0.6695771053       -0.5941507382
 H          4.3775388022        1.6691136462       -0.6016810570
 N          3.6449456985        3.2590083175        1.1776374728
 H          4.6090166079        3.3808014274        0.9245073883
 H          3.3106660530        3.7665752177        1.9779912818
 C         -4.2724948228       -0.2387867649       -0.0005798332
 O         -3.4024403448       -0.9069820664        0.5479127165
 N         -4.0782060824        1.0434136603       -0.3660613240
 H         -3.1478173397        1.4560855720       -0.2790745562
 H         -4.7620628615        1.5185133942       -0.9266791222
 N         -5.4934515688       -0.7669873680       -0.2896257732
 H         -6.2604802938       -0.1860660507       -0.5762539886
 H         -5.7141139996       -1.6670667597        0.0986140238
