  53

 O         -0.9514800851       -0.4455221074       -0.4895974178
 C         -0.4842070586       -1.7211496335       -0.8338913516
 H         -1.2226108431       -2.1445881844       -1.5180809851
 H          0.4741162736       -1.6399852562       -1.3649593158
 C         -0.2468454445       -2.6340593866        0.3782961999
 H          0.1572013391       -2.0242832565        1.1943423950
 H          0.4828044913       -3.3986576078        0.1069867980
 N         -1.4488379205       -3.3281476577        0.9172204071
 C         -1.0306586944       -4.0794887523        2.1136849167
 H         -0.6194250967       -3.3816640180        2.8432648793
 H         -0.2769424314       -4.8186625605        1.8498710979
 H         -1.8875732389       -4.5889072806        2.5495196058
 C         -2.0257814048       -4.2609616054       -0.0652626698
 H         -2.7782252081       -4.8787393726        0.4208092864
 H         -1.2502784121       -4.9061192304       -0.4726300325
 H         -2.5111672643       -3.7121922285       -0.8709661821
 C         -2.4608266927       -2.3343001395        1.3075669138
 H         -2.0129675340       -1.6392432845        2.0158084674
 H         -3.3076212140       -2.8347728723        1.7716766705
 H         -2.8051550802       -1.8009100949        0.4248402895
 H         -0.2496414949        0.0013769657        0.0486265944
 C          3.9856104267        4.6316066442       -2.5423305641
 O          3.4162721524        3.7203588453       -1.9558947630
 N          3.6124558730        5.9254270467       -2.3960333126
 H          2.9039756718        6.1450904194       -1.7189801071
 H          4.1350956814        6.6814365436       -2.7986136217
 N          5.0275581269        4.4095795486       -3.3772271145
 H          5.4361874691        5.1400629041       -3.9305610339
 H          5.2805287489        3.4593586434       -3.5816122254
 C          1.7492099025        1.5069623993       -0.0092307140
 O          1.1625414661        0.6709444830        0.6932316356
 N          1.2968930840        1.8672683503       -1.2220790303
 H          0.4402246174        1.4778392727       -1.5728265419
 H          1.8158604388        2.5450826129       -1.7590466509
 N          2.8690709489        2.1320416740        0.3958497121
 H          3.3403956108        2.7465689842       -0.2518512884
 H          3.3322362867        1.8314618828        1.2338860592
 C         -3.9786152878       -1.1748308970       -2.2162333023
 O         -3.5032470469       -2.2294420131       -1.8166214411
 N         -5.0186000176       -1.1405865680       -3.0877860691
 H         -5.4744847754       -2.0085729532       -3.3067806035
 H         -5.5049842503       -0.2881323917       -3.2976699087
 N         -3.5025284823        0.0254289545       -1.8081657364
 H         -3.8033956316        0.8764020837       -2.2470850414
 H         -2.6294842062        0.0346212663       -1.2947464534
 C          0.3199787074       -0.5787900461        4.0058100962
 O         -0.1875508671       -1.4566363417        3.3159555398
 N          0.0956566713       -0.5134990745        5.3464681286
 H         -0.3796094905       -1.2822846788        5.7847775347
 H          0.6264101001        0.1012153949        5.9364455245
 N          1.1300422358        0.3672284741        3.4913875065
 H          1.3934656999        1.1617237352        4.0463542920
 H          1.1759957042        0.4562016772        2.4767440573
