53
 xtb: 6.6.1 (unknown-commit)
O           -0.95354529455802       -0.44240615899995       -0.48635149112630
C           -0.48852480588317       -1.71844895216962       -0.83464378252357
H           -1.22449978580046       -2.14317522564513       -1.51800153709619
H            0.47250828847931       -1.63926341262016       -1.36580132469462
C           -0.24948623608830       -2.63379746927108        0.37538764405610
H            0.15706253070946       -2.02472178046317        1.19357241910948
H            0.48167206938129       -3.39863116198256        0.10533157158438
N           -1.45121421913985       -3.32773248058366        0.91531396238714
C           -1.03132783737025       -4.08113465794187        2.11010725344515
H           -0.61917215872872       -3.38252096235405        2.84234708270590
H           -0.27739355753725       -4.81914248056611        1.84816308260511
H           -1.88765420471911       -4.58942564577429        2.54867647911432
C           -2.03037400934713       -4.25874376472236       -0.06735764379465
H           -2.77951118654430       -4.87807848990862        0.42032011762830
H           -1.25198274258016       -4.90551516979580       -0.47383501994449
H           -2.51273793823527       -3.71110743571545       -0.87112848531983
C           -2.46162364345068       -2.33374539646143        1.30901063724438
H           -2.01268841141695       -1.63945596795355        2.01628679033614
H           -3.30771743391118       -2.83461459198361        1.77234524397549
H           -2.80574702954135       -1.80030774512139        0.42566692089115
H           -0.24945868165761        0.00153218081924        0.04902265778906
C            3.98155499821328        4.63317950633778       -2.54368634488667
O            3.41432473340713        3.72478796593101       -1.95094963218802
N            3.50366346314714        5.91215722472938       -2.52806820263244
H            2.85548731083139        6.14140651468694       -1.77452713763738
H            4.10609875963618        6.67967164019068       -2.83054566625443
N            5.12460787993761        4.42394256510959       -3.25609395118908
H            5.46104517586755        5.14062067595057       -3.90334988764498
H            5.32662185682217        3.46381103287340       -3.52741348266005
C            1.75487474033432        1.50223645760692       -0.00861202116648
O            1.16958631031662        0.66270954699136        0.69108171044012
N            1.29237484451669        1.88032883916450       -1.21199884037868
H            0.43795314683065        1.48309697280877       -1.56946903429000
H            1.81485033915068        2.54875432581949       -1.75598445560873
N            2.88575393870399        2.11155709018542        0.39076366216980
H            3.34431644671321        2.74237917888119       -0.25230294796438
H            3.33755829691773        1.82356157956419        1.23117728766889
C           -3.98267862297578       -1.16770200262067       -2.21243971977330
O           -3.50967737945862       -2.22227346224257       -1.81298197987156
N           -5.02318478499590       -1.13070204817859       -3.08337883028670
H           -5.47618176750632       -2.00566941131135       -3.30558499963340
H           -5.50591110665956       -0.28522564902123       -3.29623361180182
N           -3.50471708598141        0.03213939899891       -1.80369852779998
H           -3.80364383714722        0.87839017653340       -2.24577042025839
H           -2.63002521353167        0.03597893884963       -1.29361525782338
C            0.32628691442027       -0.58459452767561        4.00459494799063
O           -0.18467048043962       -1.46129497692980        3.31520074423835
N            0.10387980244616       -0.51852872502043        5.34530055659879
H           -0.37820804081426       -1.28303175250774        5.78462221200299
H            0.62936551083538        0.09938680299898        5.93597392291698
N            1.14040098506987        0.35745911878486        3.48914034393656
H            1.39726484688688        1.15886752824671        4.04560807612778
H            1.17856463062763        0.45349108828094        2.47612651759772
