 xtb: 6.6.1 (unknown-commit)
          01102415343D

 53 48  0     0  0            999 V2000
   -0.8775   -0.1308   -3.0363 O   0  0  0  0  0  0  0  0  0  0  0  0
    0.3310    0.0772   -2.3601 C   0  0  0  0  0  0  0  0  0  0  0  0
    1.1288   -0.2270   -3.0406 H   0  0  0  0  0  0  0  0  0  0  0  0
    0.4732    1.1431   -2.1402 H   0  0  0  0  0  0  0  0  0  0  0  0
    0.4208   -0.6496   -1.0137 C   0  0  0  0  0  0  0  0  0  0  0  0
   -0.4619   -0.3932   -0.4234 H   0  0  0  0  0  0  0  0  0  0  0  0
    1.3152   -0.3037   -0.4937 H   0  0  0  0  0  0  0  0  0  0  0  0
    0.4990   -2.1352   -1.0709 N   0  0  0  0  0  0  0  0  0  0  0  0
    0.7204   -2.6131    0.3050 C   0  0  0  0  0  0  0  0  0  0  0  0
    1.6582   -2.2015    0.6740 H   0  0  0  0  0  0  0  0  0  0  0  0
    0.7715   -3.7001    0.3165 H   0  0  0  0  0  0  0  0  0  0  0  0
   -0.1039   -2.2844    0.9346 H   0  0  0  0  0  0  0  0  0  0  0  0
    1.6306   -2.5736   -1.9008 C   0  0  0  0  0  0  0  0  0  0  0  0
    1.4561   -2.3286   -2.9450 H   0  0  0  0  0  0  0  0  0  0  0  0
    1.7537   -3.6516   -1.8140 H   0  0  0  0  0  0  0  0  0  0  0  0
    2.5344   -2.0796   -1.5438 H   0  0  0  0  0  0  0  0  0  0  0  0
   -0.7621   -2.6903   -1.5844 C   0  0  0  0  0  0  0  0  0  0  0  0
   -0.9831   -2.2618   -2.5606 H   0  0  0  0  0  0  0  0  0  0  0  0
   -1.5650   -2.4303   -0.8971 H   0  0  0  0  0  0  0  0  0  0  0  0
   -0.6903   -3.7733   -1.6633 H   0  0  0  0  0  0  0  0  0  0  0  0
   -1.5745    0.3139   -2.5192 H   0  0  0  0  0  0  0  0  0  0  0  0
    4.0508    0.2265    0.0332 C   0  0  0  0  0  0  0  0  0  0  0  0
    3.3373   -0.7694    0.0090 O   0  0  0  0  0  0  0  0  0  0  0  0
    3.6006    1.4277    0.4600 N   0  0  0  0  0  0  0  0  0  0  0  0
    2.6034    1.5284    0.6440 H   0  0  0  0  0  0  0  0  0  0  0  0
    4.1417    2.2589    0.3034 H   0  0  0  0  0  0  0  0  0  0  0  0
    5.3454    0.1865   -0.3796 N   0  0  0  0  0  0  0  0  0  0  0  0
    5.9723    0.9529   -0.2131 H   0  0  0  0  0  0  0  0  0  0  0  0
    5.7533   -0.7150   -0.5553 H   0  0  0  0  0  0  0  0  0  0  0  0
   -2.0423    2.5418   -0.9689 C   0  0  0  0  0  0  0  0  0  0  0  0
   -2.2669    1.3504   -1.1948 O   0  0  0  0  0  0  0  0  0  0  0  0
   -2.8515    3.5075   -1.4700 N   0  0  0  0  0  0  0  0  0  0  0  0
   -3.5615    3.2378   -2.1279 H   0  0  0  0  0  0  0  0  0  0  0  0
   -2.6226    4.4822   -1.3991 H   0  0  0  0  0  0  0  0  0  0  0  0
   -1.0085    2.9512   -0.2180 N   0  0  0  0  0  0  0  0  0  0  0  0
   -0.8787    3.9236   -0.0061 H   0  0  0  0  0  0  0  0  0  0  0  0
   -0.4049    2.2797    0.2515 H   0  0  0  0  0  0  0  0  0  0  0  0
   -3.2353   -1.2071    1.1452 C   0  0  0  0  0  0  0  0  0  0  0  0
   -2.0074   -1.3152    1.1748 O   0  0  0  0  0  0  0  0  0  0  0  0
   -4.0197   -1.8905    2.0150 N   0  0  0  0  0  0  0  0  0  0  0  0
   -3.5910   -2.5609    2.6274 H   0  0  0  0  0  0  0  0  0  0  0  0
   -5.0204   -1.8914    1.9395 H   0  0  0  0  0  0  0  0  0  0  0  0
   -3.8594   -0.4274    0.2498 N   0  0  0  0  0  0  0  0  0  0  0  0
   -4.8524   -0.2860    0.2836 H   0  0  0  0  0  0  0  0  0  0  0  0
   -3.2999    0.1952   -0.3302 H   0  0  0  0  0  0  0  0  0  0  0  0
    0.7956    0.9635    2.3908 C   0  0  0  0  0  0  0  0  0  0  0  0
    0.8778    1.4352    1.2541 O   0  0  0  0  0  0  0  0  0  0  0  0
   -0.2116    0.1621    2.7727 N   0  0  0  0  0  0  0  0  0  0  0  0
   -0.8717   -0.2048    2.0932 H   0  0  0  0  0  0  0  0  0  0  0  0
   -0.2207   -0.2448    3.6902 H   0  0  0  0  0  0  0  0  0  0  0  0
    1.7185    1.2609    3.3365 N   0  0  0  0  0  0  0  0  0  0  0  0
    1.6949    0.8578    4.2547 H   0  0  0  0  0  0  0  0  0  0  0  0
    2.4995    1.8407    3.0885 H   0  0  0  0  0  0  0  0  0  0  0  0
  1  2  1  0  0  0  0
  2  3  1  0  0  0  0
  2  4  1  0  0  0  0
  2  5  1  0  0  0  0
  5  6  1  0  0  0  0
  5  7  1  0  0  0  0
  5  8  1  0  0  0  0
  8  9  1  0  0  0  0
  9 10  1  0  0  0  0
  9 11  1  0  0  0  0
  9 12  1  0  0  0  0
  8 13  1  0  0  0  0
 13 14  1  0  0  0  0
 13 15  1  0  0  0  0
 13 16  1  0  0  0  0
  8 17  1  0  0  0  0
 17 18  1  0  0  0  0
 17 19  1  0  0  0  0
 17 20  1  0  0  0  0
  1 21  1  0  0  0  0
 22 23  2  0  0  0  0
 22 24  4  0  0  0  0
 24 25  1  0  0  0  0
 24 26  1  0  0  0  0
 22 27  1  0  0  0  0
 27 28  1  0  0  0  0
 27 29  1  0  0  0  0
 30 31  4  0  0  0  0
 30 32  4  0  0  0  0
 32 33  1  0  0  0  0
 32 34  1  0  0  0  0
 30 35  4  0  0  0  0
 35 36  1  0  0  0  0
 35 37  1  0  0  0  0
 38 39  4  0  0  0  0
 38 40  4  0  0  0  0
 40 41  1  0  0  0  0
 40 42  1  0  0  0  0
 38 43  4  0  0  0  0
 43 44  1  0  0  0  0
 43 45  1  0  0  0  0
 46 47  4  0  0  0  0
 46 48  4  0  0  0  0
 48 49  1  0  0  0  0
 48 50  1  0  0  0  0
 46 51  4  0  0  0  0
 51 52  1  0  0  0  0
 51 53  1  0  0  0  0
M  CHG  1   1   1
M  END
