  53

 O         -2.3294976162       -0.6902913647        2.2900771117
 C         -1.2799000330       -1.4781140238        1.8038782827
 H         -0.6900896970       -1.7746183665        2.6737664257
 H         -1.6681834043       -2.3961051143        1.3389448531
 C         -0.4277731150       -0.7781613261        0.7394811208
 H         -1.1106914232       -0.3638935712       -0.0040487849
 H          0.2237085477       -1.5057414536        0.2499070879
 N          0.4463411899        0.3231370205        1.2193905553
 C         -0.3090794225        1.3444039611        1.9594540243
 H         -1.0930629408        1.7525546439        1.3249171922
 H          0.3797066609        2.1358380640        2.2517169316
 H         -0.7732265746        0.9095459695        2.8410378949
 C          1.0698448402        0.9565643160        0.0448922148
 H          0.3025304229        1.3753704621       -0.6021672065
 H          1.6339402968        0.2017048404       -0.5015510006
 H          1.7336293740        1.7482056683        0.3872920679
 C          1.5281395583       -0.2031376776        2.0659321234
 H          2.0880100360       -0.9453040498        1.4997595105
 H          1.1230408158       -0.6553460485        2.9668958126
 H          2.1803496829        0.6231510575        2.3445009138
 H         -2.8821407664       -0.4203051805        1.5318124955
 C          2.1543286159       -2.5613042536       -1.7070751408
 O          2.0614374139       -1.8894410975       -0.6865060527
 N          3.1035228000       -3.5239875080       -1.8397343801
 H          3.8097051033       -3.5905995173       -1.1284863114
 H          3.2759160055       -3.9809829414       -2.7165827984
 N          1.3348337245       -2.3892492074       -2.7688485621
 H          1.3367210955       -3.0576302563       -3.5185286590
 H          0.5034053538       -1.8151357758       -2.6647659742
 C          3.2930346748        3.5958197114        2.6834310011
 O          2.4833179046        2.8065883377        2.2177704568
 N          4.6303150792        3.4164004990        2.5552831103
 H          4.9601288436        2.6657968713        1.9753838762
 H          5.2910753850        4.1127616731        2.8473340300
 N          2.9143295975        4.7050142375        3.3626769566
 H          3.5774295832        5.2919098194        3.8345493293
 H          1.9403872293        4.8302819020        3.5727295313
 C         -1.1846199269        0.4345511434       -2.8289254595
 O         -1.0503815434       -0.7752018042       -2.6366048540
 N         -0.5054165027        1.0674969796       -3.8127607384
 H          0.0692788266        0.5220183588       -4.4297548719
 H         -0.6417641243        2.0394183693       -4.0213684659
 N         -1.9440339486        1.2047215920       -2.0212816745
 H         -2.1966868201        2.1360089965       -2.3018540912
 H         -2.5683039263        0.7278862467       -1.3618139344
 C         -3.9339836514       -1.3594431256       -0.6255011872
 O         -3.4649872385       -0.2923924713       -0.2081223145
 N         -5.0284355422       -1.9056891676       -0.0534058644
 H         -5.4968803947       -1.3955681584        0.6744424847
 H         -5.4599069687       -2.7393803675       -0.4074834486
 N         -3.3643604436       -2.0296356819       -1.6373310315
 H         -3.7366201376       -2.8993518203       -1.9707412368
 H         -2.4994287877       -1.6702395041       -2.0424291303
