 xtb: 6.6.1 (unknown-commit)
          01102418243D

 53 48  0     0  0            999 V2000
   -2.3195   -1.9577    2.2969 O   0  0  0  0  0  0  0  0  0  0  0  0
   -2.8834   -2.6704    1.2404 C   0  0  0  0  0  0  0  0  0  0  0  0
   -3.6679   -3.3008    1.6699 H   0  0  0  0  0  0  0  0  0  0  0  0
   -3.3620   -1.9952    0.5175 H   0  0  0  0  0  0  0  0  0  0  0  0
   -1.8835   -3.5164    0.4312 C   0  0  0  0  0  0  0  0  0  0  0  0
   -1.1829   -2.8669   -0.1016 H   0  0  0  0  0  0  0  0  0  0  0  0
   -2.4564   -4.0884   -0.3007 H   0  0  0  0  0  0  0  0  0  0  0  0
   -1.0501   -4.4682    1.2210 N   0  0  0  0  0  0  0  0  0  0  0  0
    0.0200   -3.7297    1.9173 C   0  0  0  0  0  0  0  0  0  0  0  0
    0.6344   -3.2290    1.1687 H   0  0  0  0  0  0  0  0  0  0  0  0
    0.6342   -4.4208    2.4902 H   0  0  0  0  0  0  0  0  0  0  0  0
   -0.4195   -2.9904    2.5829 H   0  0  0  0  0  0  0  0  0  0  0  0
   -0.4201   -5.4088    0.2775 C   0  0  0  0  0  0  0  0  0  0  0  0
    0.1493   -4.8363   -0.4554 H   0  0  0  0  0  0  0  0  0  0  0  0
   -1.1772   -6.0035   -0.2295 H   0  0  0  0  0  0  0  0  0  0  0  0
    0.2536   -6.0753    0.8120 H   0  0  0  0  0  0  0  0  0  0  0  0
   -1.8566   -5.2085    2.2023 C   0  0  0  0  0  0  0  0  0  0  0  0
   -2.2298   -4.5263    2.9634 H   0  0  0  0  0  0  0  0  0  0  0  0
   -1.2432   -5.9677    2.6844 H   0  0  0  0  0  0  0  0  0  0  0  0
   -2.6962   -5.6960    1.7094 H   0  0  0  0  0  0  0  0  0  0  0  0
   -1.7336   -1.2549    1.9106 H   0  0  0  0  0  0  0  0  0  0  0  0
    1.3769   -1.9205   -1.3880 C   0  0  0  0  0  0  0  0  0  0  0  0
    0.8317   -2.9382   -0.9600 O   0  0  0  0  0  0  0  0  0  0  0  0
    1.1683   -0.7137   -0.8472 N   0  0  0  0  0  0  0  0  0  0  0  0
    0.4899   -0.6142   -0.0951 H   0  0  0  0  0  0  0  0  0  0  0  0
    1.5945    0.1253   -1.2141 H   0  0  0  0  0  0  0  0  0  0  0  0
    2.2748   -1.9729   -2.4110 N   0  0  0  0  0  0  0  0  0  0  0  0
    2.5702   -1.1307   -2.8707 H   0  0  0  0  0  0  0  0  0  0  0  0
    2.3651   -2.8374   -2.9145 H   0  0  0  0  0  0  0  0  0  0  0  0
   -0.5311    4.6598   -1.5911 C   0  0  0  0  0  0  0  0  0  0  0  0
   -0.2637    4.6549   -0.3870 O   0  0  0  0  0  0  0  0  0  0  0  0
   -1.4150    5.5452   -2.1070 N   0  0  0  0  0  0  0  0  0  0  0  0
   -1.7781    6.2599   -1.5018 H   0  0  0  0  0  0  0  0  0  0  0  0
   -1.5796    5.6256   -3.0935 H   0  0  0  0  0  0  0  0  0  0  0  0
    0.0084    3.7715   -2.4444 N   0  0  0  0  0  0  0  0  0  0  0  0
   -0.2000    3.7901   -3.4254 H   0  0  0  0  0  0  0  0  0  0  0  0
    0.6803    3.0904   -2.0967 H   0  0  0  0  0  0  0  0  0  0  0  0
    2.7509    2.6877   -0.5713 C   0  0  0  0  0  0  0  0  0  0  0  0
    1.9624    2.0319   -1.2662 O   0  0  0  0  0  0  0  0  0  0  0  0
    2.3833    3.8163    0.0461 N   0  0  0  0  0  0  0  0  0  0  0  0
    1.4215    4.1541   -0.0413 H   0  0  0  0  0  0  0  0  0  0  0  0
    3.0276    4.3389    0.6103 H   0  0  0  0  0  0  0  0  0  0  0  0
    4.0261    2.2720   -0.3919 N   0  0  0  0  0  0  0  0  0  0  0  0
    4.6948    2.8117    0.1258 H   0  0  0  0  0  0  0  0  0  0  0  0
    4.3449    1.4509   -0.8735 H   0  0  0  0  0  0  0  0  0  0  0  0
   -1.0604    1.0687    1.1910 C   0  0  0  0  0  0  0  0  0  0  0  0
   -0.7998   -0.1411    1.1051 O   0  0  0  0  0  0  0  0  0  0  0  0
   -2.0725    1.5065    1.9752 N   0  0  0  0  0  0  0  0  0  0  0  0
   -2.5405    0.8523    2.5782 H   0  0  0  0  0  0  0  0  0  0  0  0
   -2.2235    2.4878    2.1220 H   0  0  0  0  0  0  0  0  0  0  0  0
   -0.3799    1.9912    0.5085 N   0  0  0  0  0  0  0  0  0  0  0  0
   -0.5996    2.9783    0.5232 H   0  0  0  0  0  0  0  0  0  0  0  0
    0.3536    1.7101   -0.1274 H   0  0  0  0  0  0  0  0  0  0  0  0
  1  2  1  0  0  0  0
  2  3  1  0  0  0  0
  2  4  1  0  0  0  0
  2  5  1  0  0  0  0
  5  6  1  0  0  0  0
  5  7  1  0  0  0  0
  5  8  1  0  0  0  0
  8  9  1  0  0  0  0
  9 10  1  0  0  0  0
  9 11  1  0  0  0  0
  9 12  1  0  0  0  0
  8 13  1  0  0  0  0
 13 14  1  0  0  0  0
 13 15  1  0  0  0  0
 13 16  1  0  0  0  0
  8 17  1  0  0  0  0
 17 18  1  0  0  0  0
 17 19  1  0  0  0  0
 17 20  1  0  0  0  0
  1 21  1  0  0  0  0
 22 23  4  0  0  0  0
 22 24  4  0  0  0  0
 24 25  1  0  0  0  0
 24 26  1  0  0  0  0
 22 27  1  0  0  0  0
 27 28  1  0  0  0  0
 27 29  1  0  0  0  0
 30 31  4  0  0  0  0
 30 32  4  0  0  0  0
 32 33  1  0  0  0  0
 32 34  1  0  0  0  0
 30 35  4  0  0  0  0
 35 36  1  0  0  0  0
 35 37  1  0  0  0  0
 38 39  4  0  0  0  0
 38 40  4  0  0  0  0
 40 41  1  0  0  0  0
 40 42  1  0  0  0  0
 38 43  4  0  0  0  0
 43 44  1  0  0  0  0
 43 45  1  0  0  0  0
 46 47  4  0  0  0  0
 46 48  4  0  0  0  0
 48 49  1  0  0  0  0
 48 50  1  0  0  0  0
 46 51  4  0  0  0  0
 51 52  1  0  0  0  0
 51 53  1  0  0  0  0
M  CHG  1   1   1
M  END
