  53

 O          1.5079101941        1.4378541869       -2.3134964430
 C          1.8699359618        0.0881862783       -2.4226391271
 H          1.6049200639       -0.2005873919       -3.4438398344
 H          2.9555614362       -0.0256651208       -2.3014348857
 C          1.1099932495       -0.7290500398       -1.3649908746
 H          0.1711645854       -0.2049434864       -1.1559780203
 H          1.6989334134       -0.7617335867       -0.4473242390
 N          0.7403732716       -2.1263178887       -1.7007200722
 C         -0.2233305078       -2.1529777790       -2.8126902802
 H         -1.0542828914       -1.4886725184       -2.5737654824
 H         -0.5976657414       -3.1642466649       -2.9595621740
 H          0.2420083675       -1.8191609819       -3.7365463143
 C          0.0913762019       -2.6899329395       -0.5021536872
 H         -0.7911328885       -2.0997691063       -0.2647950033
 H          0.7814563415       -2.6447979187        0.3394207146
 H         -0.1963891118       -3.7235493058       -0.6828383333
 C          1.9388798441       -2.9148703877       -2.0174664840
 H          2.6194960176       -2.8841937823       -1.1681569825
 H          2.4423035775       -2.5069724790       -2.8909284167
 H          1.6674144006       -3.9501616787       -2.2177635733
 H          1.6179223891        1.7147449359       -1.3788491509
 C          0.3673094477        1.5048560899        1.0428245444
 O          1.4196387845        1.7292823089        0.4246544524
 N          0.1217807230        0.3043055961        1.6024870234
 H          0.8553639507       -0.3956444154        1.6231545751
 H         -0.7066360708        0.1655760892        2.1507729917
 N         -0.5960810994        2.4313356644        1.1694983790
 H         -1.5010084234        2.2033912354        1.5634440113
 H         -0.4473498063        3.3380254376        0.7651957787
 C         -1.9822613792        1.4579286228       -1.4435435256
 O         -1.7225492185        0.2921527364       -1.1123588904
 N         -2.9987915913        2.1429610528       -0.8836329446
 H         -3.3266223471        1.8462796947        0.0312209957
 H         -3.1370422796        3.1108015508       -1.1162750447
 N         -1.3074673782        2.0667576587       -2.4430517975
 H         -1.4781902929        3.0385727858       -2.6345430879
 H         -0.3860191900        1.7231172710       -2.6916068661
 C         -3.5309428671        0.1858692152        1.9632402543
 O         -3.1999692959        1.3657121260        1.8502073719
 N         -3.0579382795       -0.7628925778        1.1215790538
 H         -2.5905623710       -0.4254880327        0.2729565601
 H         -3.4901119242       -1.6694436116        1.0964994593
 N         -4.3312944577       -0.2283252590        2.9695850186
 H         -4.6355187132       -1.1793827995        3.0660275458
 H         -4.6789839705        0.4574102074        3.6160707231
 C          3.4164765051       -0.9550607448        1.6704900915
 O          2.3714568582       -1.5279881520        1.3404590193
 N          3.6333999670        0.3380494208        1.3895200144
 H          2.8707877036        0.9044720297        1.0038714067
 H          4.4553123000        0.8108134463        1.7184564572
 N          4.4237198020       -1.6340228120        2.2699682546
 H          5.2317389148       -1.1647513985        2.6364884525
 H          4.2562930542       -2.5810149874        2.5599627127
