 xtb: 6.6.1 (unknown-commit)
          01102415343D

 53 48  0     0  0            999 V2000
    1.5079    1.4378   -2.3135 O   0  0  0  0  0  0  0  0  0  0  0  0
    1.8699    0.0882   -2.4226 C   0  0  0  0  0  0  0  0  0  0  0  0
    1.6049   -0.2006   -3.4438 H   0  0  0  0  0  0  0  0  0  0  0  0
    2.9556   -0.0257   -2.3014 H   0  0  0  0  0  0  0  0  0  0  0  0
    1.1100   -0.7291   -1.3650 C   0  0  0  0  0  0  0  0  0  0  0  0
    0.1712   -0.2049   -1.1560 H   0  0  0  0  0  0  0  0  0  0  0  0
    1.6989   -0.7617   -0.4473 H   0  0  0  0  0  0  0  0  0  0  0  0
    0.7404   -2.1263   -1.7007 N   0  0  0  0  0  0  0  0  0  0  0  0
   -0.2234   -2.1530   -2.8127 C   0  0  0  0  0  0  0  0  0  0  0  0
   -1.0543   -1.4887   -2.5738 H   0  0  0  0  0  0  0  0  0  0  0  0
   -0.5977   -3.1642   -2.9596 H   0  0  0  0  0  0  0  0  0  0  0  0
    0.2420   -1.8192   -3.7365 H   0  0  0  0  0  0  0  0  0  0  0  0
    0.0914   -2.6899   -0.5021 C   0  0  0  0  0  0  0  0  0  0  0  0
   -0.7911   -2.0998   -0.2648 H   0  0  0  0  0  0  0  0  0  0  0  0
    0.7814   -2.6448    0.3394 H   0  0  0  0  0  0  0  0  0  0  0  0
   -0.1964   -3.7235   -0.6828 H   0  0  0  0  0  0  0  0  0  0  0  0
    1.9389   -2.9149   -2.0175 C   0  0  0  0  0  0  0  0  0  0  0  0
    2.6195   -2.8842   -1.1682 H   0  0  0  0  0  0  0  0  0  0  0  0
    2.4423   -2.5070   -2.8909 H   0  0  0  0  0  0  0  0  0  0  0  0
    1.6674   -3.9502   -2.2178 H   0  0  0  0  0  0  0  0  0  0  0  0
    1.6179    1.7147   -1.3789 H   0  0  0  0  0  0  0  0  0  0  0  0
    0.3673    1.5049    1.0428 C   0  0  0  0  0  0  0  0  0  0  0  0
    1.4196    1.7293    0.4246 O   0  0  0  0  0  0  0  0  0  0  0  0
    0.1218    0.3043    1.6025 N   0  0  0  0  0  0  0  0  0  0  0  0
    0.8554   -0.3956    1.6232 H   0  0  0  0  0  0  0  0  0  0  0  0
   -0.7066    0.1656    2.1508 H   0  0  0  0  0  0  0  0  0  0  0  0
   -0.5961    2.4313    1.1695 N   0  0  0  0  0  0  0  0  0  0  0  0
   -1.5010    2.2034    1.5634 H   0  0  0  0  0  0  0  0  0  0  0  0
   -0.4473    3.3380    0.7652 H   0  0  0  0  0  0  0  0  0  0  0  0
   -1.9823    1.4579   -1.4435 C   0  0  0  0  0  0  0  0  0  0  0  0
   -1.7226    0.2922   -1.1124 O   0  0  0  0  0  0  0  0  0  0  0  0
   -2.9988    2.1430   -0.8836 N   0  0  0  0  0  0  0  0  0  0  0  0
   -3.3266    1.8463    0.0312 H   0  0  0  0  0  0  0  0  0  0  0  0
   -3.1370    3.1108   -1.1163 H   0  0  0  0  0  0  0  0  0  0  0  0
   -1.3075    2.0668   -2.4431 N   0  0  0  0  0  0  0  0  0  0  0  0
   -1.4782    3.0386   -2.6345 H   0  0  0  0  0  0  0  0  0  0  0  0
   -0.3860    1.7231   -2.6916 H   0  0  0  0  0  0  0  0  0  0  0  0
   -3.5309    0.1859    1.9633 C   0  0  0  0  0  0  0  0  0  0  0  0
   -3.2000    1.3657    1.8502 O   0  0  0  0  0  0  0  0  0  0  0  0
   -3.0579   -0.7629    1.1216 N   0  0  0  0  0  0  0  0  0  0  0  0
   -2.5906   -0.4255    0.2730 H   0  0  0  0  0  0  0  0  0  0  0  0
   -3.4901   -1.6694    1.0965 H   0  0  0  0  0  0  0  0  0  0  0  0
   -4.3313   -0.2283    2.9696 N   0  0  0  0  0  0  0  0  0  0  0  0
   -4.6355   -1.1794    3.0660 H   0  0  0  0  0  0  0  0  0  0  0  0
   -4.6790    0.4574    3.6161 H   0  0  0  0  0  0  0  0  0  0  0  0
    3.4165   -0.9551    1.6705 C   0  0  0  0  0  0  0  0  0  0  0  0
    2.3715   -1.5280    1.3405 O   0  0  0  0  0  0  0  0  0  0  0  0
    3.6334    0.3380    1.3895 N   0  0  0  0  0  0  0  0  0  0  0  0
    2.8708    0.9045    1.0039 H   0  0  0  0  0  0  0  0  0  0  0  0
    4.4553    0.8108    1.7184 H   0  0  0  0  0  0  0  0  0  0  0  0
    4.4237   -1.6340    2.2700 N   0  0  0  0  0  0  0  0  0  0  0  0
    5.2317   -1.1648    2.6365 H   0  0  0  0  0  0  0  0  0  0  0  0
    4.2563   -2.5810    2.5600 H   0  0  0  0  0  0  0  0  0  0  0  0
  1  2  1  0  0  0  0
  2  3  1  0  0  0  0
  2  4  1  0  0  0  0
  2  5  1  0  0  0  0
  5  6  1  0  0  0  0
  5  7  1  0  0  0  0
  5  8  1  0  0  0  0
  8  9  1  0  0  0  0
  9 10  1  0  0  0  0
  9 11  1  0  0  0  0
  9 12  1  0  0  0  0
  8 13  1  0  0  0  0
 13 14  1  0  0  0  0
 13 15  1  0  0  0  0
 13 16  1  0  0  0  0
  8 17  1  0  0  0  0
 17 18  1  0  0  0  0
 17 19  1  0  0  0  0
 17 20  1  0  0  0  0
  1 21  1  0  0  0  0
 22 23  4  0  0  0  0
 22 24  4  0  0  0  0
 24 25  1  0  0  0  0
 24 26  1  0  0  0  0
 22 27  4  0  0  0  0
 27 28  1  0  0  0  0
 27 29  1  0  0  0  0
 30 31  4  0  0  0  0
 30 32  4  0  0  0  0
 32 33  1  0  0  0  0
 32 34  1  0  0  0  0
 30 35  4  0  0  0  0
 35 36  1  0  0  0  0
 35 37  1  0  0  0  0
 38 39  2  0  0  0  0
 38 40  4  0  0  0  0
 40 41  1  0  0  0  0
 40 42  1  0  0  0  0
 38 43  4  0  0  0  0
 43 44  1  0  0  0  0
 43 45  1  0  0  0  0
 46 47  4  0  0  0  0
 46 48  4  0  0  0  0
 48 49  1  0  0  0  0
 48 50  1  0  0  0  0
 46 51  4  0  0  0  0
 51 52  1  0  0  0  0
 51 53  1  0  0  0  0
M  CHG  1   1   1
M  END
