  53

 O          0.2318309895       -3.8462625575       -3.2709209428
 C         -0.9306774724       -3.4269343718       -2.5872102566
 H         -1.4833039670       -2.6884303525       -3.1813803584
 H         -1.5991068776       -4.2782795855       -2.4066263173
 C         -0.5856373449       -2.8573774101       -1.2106793348
 H         -0.1301268179       -3.6452468358       -0.6086037283
 H         -1.5269766463       -2.5336175272       -0.7580387591
 N          0.3291871207       -1.6862793122       -1.1846143671
 C          0.2978841424       -1.1177516363        0.1742593321
 H         -0.7048594769       -0.7485666895        0.3846053164
 H          1.0111457768       -0.2979814652        0.2380358431
 H          0.5625968570       -1.8751576174        0.9086139952
 C         -0.1125971135       -0.6415862641       -2.1209383488
 H         -0.0271340531       -0.9964597744       -3.1441887963
 H          0.5341154803        0.2240897781       -1.9962353564
 H         -1.1444275885       -0.3791207652       -1.8922672444
 C          1.7134368926       -2.0687447102       -1.5049291317
 H          1.7479738827       -2.5590387669       -2.4740857291
 H          2.0954820817       -2.7531368105       -0.7506702191
 H          2.3249934787       -1.1678277888       -1.5188934827
 H         -0.0133182865       -4.3960134651       -4.0213660097
 C          3.5456178034        1.3818871691       -0.7828197067
 O          2.4578982377        1.0163906377       -1.2247212227
 N          4.5190511891        1.8453462614       -1.6053355858
 H          4.3637599066        1.8235559505       -2.5970357454
 H          5.4369424750        2.0760344548       -1.2726394712
 N          3.8513550760        1.3217816731        0.5283285730
 H          4.6948484283        1.7432891261        0.8733063520
 H          3.1164998191        1.1289021291        1.1997654991
 C         -0.9754580505        2.1858875611        0.2556327021
 O         -1.6401023153        1.8622581901        1.2465596705
 N         -1.5732147702        2.4186294717       -0.9426715304
 H         -2.5755996457        2.4948155041       -0.9608352000
 H         -1.0611202025        2.8640366649       -1.6830051313
 N          0.3578885400        2.3135341150        0.3005485981
 H          0.8994931770        2.3403626885       -0.5486343918
 H          0.8396888654        1.9253340164        1.1142760829
 C         -3.8924298872       -0.5974549575       -0.0180827096
 O         -2.8210437984       -0.9475218608       -0.5051740946
 N         -5.0125061050       -1.3602327734       -0.1504775816
 H         -4.9851489997       -2.1401067924       -0.7827706933
 H         -5.9155473521       -1.0106172549        0.1145859833
 N         -4.0363801492        0.5535439069        0.6656732283
 H         -4.8798115804        0.7363914593        1.1793687940
 H         -3.1923948402        1.0597584612        0.9428237668
 C          1.0764139142        0.9081527194        3.4543779240
 O          1.6687314617        0.9619491233        2.3719363108
 N         -0.2381921054        1.1384229014        3.5606531624
 H         -0.7779826458        1.4155486665        2.7356345122
 H         -0.6980652705        1.1269096422        4.4522707147
 N          1.7354509874        0.5701741481        4.5901340922
 H          1.2947088709        0.6043434664        5.4907878418
 H          2.7315211117        0.4504224127        4.5526120620
