  53

 O         -0.5856997382        0.2246320672        1.8201649836
 C         -0.7901561219       -1.1614495838        1.8839218299
 H         -0.0274207573       -1.5377522920        2.5714172289
 H         -1.7819956908       -1.3783672350        2.3032698641
 C         -0.6437856624       -1.7567173410        0.4757054441
 H          0.1916643098       -1.2446552592       -0.0136238501
 H         -1.5648569103       -1.5677707683       -0.0809141474
 N         -0.3582229434       -3.2098366595        0.3799024862
 C          0.9608088793       -3.5215076969        0.9533234222
 H          1.7025439412       -2.8527722452        0.5142891204
 H          1.2266312266       -4.5535208569        0.7335831700
 H          0.9512269565       -3.3884686504        2.0320181904
 C         -0.3386400425       -3.5384526942       -1.0565838362
 H          0.4357235654       -2.9514547361       -1.5466463319
 H         -1.3105899104       -3.3014076429       -1.4867326598
 H         -0.1308930179       -4.5972864423       -1.1967762809
 C         -1.4163032131       -3.9925380755        1.0342724840
 H         -2.3711872721       -3.7291185122        0.5778848294
 H         -1.4469687875       -3.7721920484        2.0983542817
 H         -1.2317542361       -5.0564989455        0.8980775060
 H         -1.1746324888        0.5843004979        1.1188767197
 C          2.4961627995        0.1473066406       -0.3440867977
 O          2.1058430553       -1.0052146980       -0.5118539294
 N          3.6142085209        0.6330621561       -0.9153087282
 H          4.2020447129        0.0167530920       -1.4465772277
 H          3.9407306740        1.5535994676       -0.6616448690
 N          1.7741847660        1.0745496486        0.3595005583
 H          2.2833173638        1.9151119091        0.6095521468
 H          1.1010374074        0.7324414840        1.0419171987
 C          4.2923697956        4.0700673530        1.1434536998
 O          3.7669874524        3.1617819124        0.5130543718
 N          3.6846439617        4.6574027016        2.2018541133
 H          2.7421010704        4.3928148905        2.4256052026
 H          4.0752984353        5.4565942864        2.6657756190
 N          5.5196223581        4.5469155427        0.8320409495
 H          5.9803103601        5.2461941570        1.3843589774
 H          6.0372040909        4.1043554564        0.0942559491
 C         -4.4003611578       -1.8597575887       -0.8107690984
 O         -3.3496979389       -2.4915800330       -0.8251798696
 N         -5.6062210316       -2.4873132756       -0.8539629513
 H         -5.6157004229       -3.4695489041       -1.0662872324
 H         -6.4563327530       -1.9749242103       -1.0059676108
 N         -4.4355794656       -0.5110422074       -0.7452566302
 H         -5.3013256134       -0.0417039721       -0.5466687234
 H         -3.5692755569       -0.0100152774       -0.5460323579
 C         -1.5898360852        1.5800124246       -1.3521329628
 O         -2.0145042798        0.9274614752       -0.3940068961
 N         -0.3209116138        2.0100477250       -1.4262307951
 H          0.3710691596        1.7130271138       -0.7372659508
 H          0.0084413829        2.4966976745       -2.2399985865
 N         -2.4003997344        1.9012976006       -2.3873272391
 H         -2.0869320612        2.4603025170       -3.1589162206
 H         -3.3649058387        1.6241160392       -2.3555165562
