 xtb: 6.6.1 (unknown-commit)
          01102418243D

 53 48  0     0  0            999 V2000
   -0.5857    0.2246    1.8202 O   0  0  0  0  0  0  0  0  0  0  0  0
   -0.7902   -1.1614    1.8839 C   0  0  0  0  0  0  0  0  0  0  0  0
   -0.0274   -1.5377    2.5714 H   0  0  0  0  0  0  0  0  0  0  0  0
   -1.7820   -1.3784    2.3033 H   0  0  0  0  0  0  0  0  0  0  0  0
   -0.6438   -1.7567    0.4757 C   0  0  0  0  0  0  0  0  0  0  0  0
    0.1917   -1.2447   -0.0136 H   0  0  0  0  0  0  0  0  0  0  0  0
   -1.5649   -1.5678   -0.0809 H   0  0  0  0  0  0  0  0  0  0  0  0
   -0.3582   -3.2098    0.3799 N   0  0  0  0  0  0  0  0  0  0  0  0
    0.9608   -3.5215    0.9533 C   0  0  0  0  0  0  0  0  0  0  0  0
    1.7025   -2.8528    0.5143 H   0  0  0  0  0  0  0  0  0  0  0  0
    1.2266   -4.5535    0.7336 H   0  0  0  0  0  0  0  0  0  0  0  0
    0.9512   -3.3885    2.0320 H   0  0  0  0  0  0  0  0  0  0  0  0
   -0.3387   -3.5385   -1.0566 C   0  0  0  0  0  0  0  0  0  0  0  0
    0.4357   -2.9515   -1.5466 H   0  0  0  0  0  0  0  0  0  0  0  0
   -1.3106   -3.3014   -1.4867 H   0  0  0  0  0  0  0  0  0  0  0  0
   -0.1309   -4.5973   -1.1968 H   0  0  0  0  0  0  0  0  0  0  0  0
   -1.4163   -3.9925    1.0343 C   0  0  0  0  0  0  0  0  0  0  0  0
   -2.3712   -3.7291    0.5779 H   0  0  0  0  0  0  0  0  0  0  0  0
   -1.4470   -3.7722    2.0984 H   0  0  0  0  0  0  0  0  0  0  0  0
   -1.2318   -5.0565    0.8981 H   0  0  0  0  0  0  0  0  0  0  0  0
   -1.1746    0.5843    1.1189 H   0  0  0  0  0  0  0  0  0  0  0  0
    2.4962    0.1473   -0.3441 C   0  0  0  0  0  0  0  0  0  0  0  0
    2.1058   -1.0052   -0.5119 O   0  0  0  0  0  0  0  0  0  0  0  0
    3.6142    0.6330   -0.9153 N   0  0  0  0  0  0  0  0  0  0  0  0
    4.2020    0.0167   -1.4466 H   0  0  0  0  0  0  0  0  0  0  0  0
    3.9407    1.5536   -0.6617 H   0  0  0  0  0  0  0  0  0  0  0  0
    1.7742    1.0745    0.3595 N   0  0  0  0  0  0  0  0  0  0  0  0
    2.2833    1.9151    0.6095 H   0  0  0  0  0  0  0  0  0  0  0  0
    1.1010    0.7324    1.0419 H   0  0  0  0  0  0  0  0  0  0  0  0
    4.2924    4.0700    1.1434 C   0  0  0  0  0  0  0  0  0  0  0  0
    3.7670    3.1618    0.5130 O   0  0  0  0  0  0  0  0  0  0  0  0
    3.6847    4.6574    2.2018 N   0  0  0  0  0  0  0  0  0  0  0  0
    2.7421    4.3928    2.4256 H   0  0  0  0  0  0  0  0  0  0  0  0
    4.0753    5.4566    2.6658 H   0  0  0  0  0  0  0  0  0  0  0  0
    5.5196    4.5469    0.8320 N   0  0  0  0  0  0  0  0  0  0  0  0
    5.9803    5.2462    1.3843 H   0  0  0  0  0  0  0  0  0  0  0  0
    6.0372    4.1043    0.0942 H   0  0  0  0  0  0  0  0  0  0  0  0
   -4.4004   -1.8597   -0.8108 C   0  0  0  0  0  0  0  0  0  0  0  0
   -3.3497   -2.4916   -0.8252 O   0  0  0  0  0  0  0  0  0  0  0  0
   -5.6062   -2.4873   -0.8539 N   0  0  0  0  0  0  0  0  0  0  0  0
   -5.6157   -3.4695   -1.0663 H   0  0  0  0  0  0  0  0  0  0  0  0
   -6.4563   -1.9749   -1.0059 H   0  0  0  0  0  0  0  0  0  0  0  0
   -4.4356   -0.5110   -0.7452 N   0  0  0  0  0  0  0  0  0  0  0  0
   -5.3013   -0.0417   -0.5467 H   0  0  0  0  0  0  0  0  0  0  0  0
   -3.5693   -0.0100   -0.5460 H   0  0  0  0  0  0  0  0  0  0  0  0
   -1.5898    1.5800   -1.3521 C   0  0  0  0  0  0  0  0  0  0  0  0
   -2.0145    0.9275   -0.3940 O   0  0  0  0  0  0  0  0  0  0  0  0
   -0.3209    2.0100   -1.4262 N   0  0  0  0  0  0  0  0  0  0  0  0
    0.3711    1.7130   -0.7373 H   0  0  0  0  0  0  0  0  0  0  0  0
    0.0084    2.4967   -2.2400 H   0  0  0  0  0  0  0  0  0  0  0  0
   -2.4004    1.9013   -2.3873 N   0  0  0  0  0  0  0  0  0  0  0  0
   -2.0869    2.4603   -3.1589 H   0  0  0  0  0  0  0  0  0  0  0  0
   -3.3649    1.6241   -2.3555 H   0  0  0  0  0  0  0  0  0  0  0  0
  1  2  1  0  0  0  0
  2  3  1  0  0  0  0
  2  4  1  0  0  0  0
  2  5  1  0  0  0  0
  5  6  1  0  0  0  0
  5  7  1  0  0  0  0
  5  8  1  0  0  0  0
  8  9  1  0  0  0  0
  9 10  1  0  0  0  0
  9 11  1  0  0  0  0
  9 12  1  0  0  0  0
  8 13  1  0  0  0  0
 13 14  1  0  0  0  0
 13 15  1  0  0  0  0
 13 16  1  0  0  0  0
  8 17  1  0  0  0  0
 17 18  1  0  0  0  0
 17 19  1  0  0  0  0
 17 20  1  0  0  0  0
  1 21  1  0  0  0  0
 22 23  2  0  0  0  0
 22 24  4  0  0  0  0
 24 25  1  0  0  0  0
 24 26  1  0  0  0  0
 22 27  1  0  0  0  0
 27 28  1  0  0  0  0
 27 29  1  0  0  0  0
 30 31  2  0  0  0  0
 30 32  4  0  0  0  0
 32 33  1  0  0  0  0
 32 34  1  0  0  0  0
 30 35  4  0  0  0  0
 35 36  1  0  0  0  0
 35 37  1  0  0  0  0
 38 39  2  0  0  0  0
 38 40  1  0  0  0  0
 40 41  1  0  0  0  0
 40 42  1  0  0  0  0
 38 43  4  0  0  0  0
 43 44  1  0  0  0  0
 43 45  1  0  0  0  0
 46 47  4  0  0  0  0
 46 48  4  0  0  0  0
 48 49  1  0  0  0  0
 48 50  1  0  0  0  0
 46 51  4  0  0  0  0
 51 52  1  0  0  0  0
 51 53  1  0  0  0  0
M  CHG  1   1   1
M  END
