  53

 O         -2.4965698957       -1.9448944483        2.0499886941
 C         -2.9658314278       -2.8225240708        1.0739416976
 H         -3.6642857738       -3.5044580582        1.5676788160
 H         -3.5236287029       -2.2845269955        0.2958322773
 C         -1.8605079301       -3.6023827153        0.3383713429
 H         -1.2182332227       -2.9051278636       -0.2065860613
 H         -2.3461867394       -4.2684144645       -0.3767987099
 N         -0.9573724395       -4.4196729144        1.1995452289
 C         -0.0327789811       -3.5326951723        1.9297291038
 H          0.5667432473       -2.9850308333        1.2028596972
 H          0.6199353363       -4.1231293036        2.5688467036
 H         -0.6047588693       -2.8303849921        2.5329165798
 C         -0.1608698592       -5.2945344996        0.3208166907
 H          0.3833954949       -4.6733833861       -0.3906998339
 H         -0.8072941758       -5.9859692050       -0.2157696592
 H          0.5525660055       -5.8644304707        0.9126849976
 C         -1.7167449372       -5.2365305605        2.1578511455
 H         -2.2056857587       -4.5947278081        2.8874674996
 H         -1.0415399825       -5.9092247110        2.6840052626
 H         -2.4672015966       -5.8288680813        1.6368877645
 H         -2.0427695795       -1.1963387811        1.5816128631
 C          1.1221428350       -1.7093526243       -1.5821654817
 O          0.9266014532       -2.7127198638       -0.9024304761
 N          0.2768950466       -0.6680573923       -1.6257563705
 H         -0.4119365817       -0.5797144802       -0.8781867020
 H          0.6218329079        0.2112167236       -1.9951220732
 N          2.2584669768       -1.5761482090       -2.3526631450
 H          2.2124663779       -0.9386611314       -3.1325728681
 H          2.7624602039       -2.4310793292       -2.5321775477
 C          0.2508908591        5.1740840201       -0.8910714014
 O          0.4146117740        4.6702912664        0.2235694911
 N         -0.2403059962        6.4276953677       -1.0255836329
 H         -0.3787370233        6.9752445270       -0.1950117416
 H         -0.2971991535        6.8872968761       -1.9156907366
 N          0.5252973718        4.5027065059       -2.0223938868
 H          0.3746668320        4.9088958209       -2.9270011830
 H          0.8651391739        3.5447242580       -1.9627309791
 C          2.4245129279        1.8507670470       -0.7181288599
 O          1.5251693840        1.8551820559       -1.5718627451
 N          2.5102140352        2.8041366509        0.2177965809
 H          1.7893296381        3.5290813989        0.2669076479
 H          3.2470667833        2.8078343361        0.8985353894
 N          3.3604796755        0.8752688879       -0.7018837281
 H          4.0621770989        0.8357416293        0.0141841493
 H          3.2584811439        0.0843318209       -1.3197718638
 C         -1.3150572008        1.1480791381        0.9599505412
 O         -1.3172407783       -0.0461347061        0.6233724661
 N         -1.8862306864        1.5421799085        2.1206737965
 H         -2.4205828648        0.8785862001        2.6541307477
 H         -1.9626682642        2.5162538017        2.3508398309
 N         -0.7656769937        2.1016765544        0.2012620933
 H         -0.6125608975        3.0449888894        0.5357267054
 H         -0.1951897882        1.8339584107       -0.5902195876
