 xtb: 6.6.1 (unknown-commit)
          01102418273D

 53 48  0     0  0            999 V2000
    0.4256   -0.1231    3.6813 O   0  0  0  0  0  0  0  0  0  0  0  0
    0.1277   -1.2016    2.8051 C   0  0  0  0  0  0  0  0  0  0  0  0
    0.4929   -2.1436    3.2329 H   0  0  0  0  0  0  0  0  0  0  0  0
   -0.9558   -1.2870    2.6609 H   0  0  0  0  0  0  0  0  0  0  0  0
    0.6935   -0.9440    1.4167 C   0  0  0  0  0  0  0  0  0  0  0  0
    0.3788    0.0499    1.0993 H   0  0  0  0  0  0  0  0  0  0  0  0
    0.2630   -1.6808    0.7353 H   0  0  0  0  0  0  0  0  0  0  0  0
    2.1703   -0.9937    1.2413 N   0  0  0  0  0  0  0  0  0  0  0  0
    2.8266    0.0420    2.0529 C   0  0  0  0  0  0  0  0  0  0  0  0
    2.4385    1.0144    1.7495 H   0  0  0  0  0  0  0  0  0  0  0  0
    3.9028    0.0156    1.8948 H   0  0  0  0  0  0  0  0  0  0  0  0
    2.6106   -0.1093    3.1071 H   0  0  0  0  0  0  0  0  0  0  0  0
    2.4358   -0.7158   -0.1827 C   0  0  0  0  0  0  0  0  0  0  0  0
    2.0425    0.2674   -0.4310 H   0  0  0  0  0  0  0  0  0  0  0  0
    1.9406   -1.4662   -0.7964 H   0  0  0  0  0  0  0  0  0  0  0  0
    3.5069   -0.7362   -0.3712 H   0  0  0  0  0  0  0  0  0  0  0  0
    2.6935   -2.3261    1.5701 C   0  0  0  0  0  0  0  0  0  0  0  0
    2.5658   -2.5380    2.6289 H   0  0  0  0  0  0  0  0  0  0  0  0
    3.7548   -2.3779    1.3334 H   0  0  0  0  0  0  0  0  0  0  0  0
    2.1615   -3.0730    0.9828 H   0  0  0  0  0  0  0  0  0  0  0  0
   -0.1030   -0.2150    4.4803 H   0  0  0  0  0  0  0  0  0  0  0  0
   -0.5649   -3.6945   -0.9807 C   0  0  0  0  0  0  0  0  0  0  0  0
    0.2824   -2.7957   -0.9852 O   0  0  0  0  0  0  0  0  0  0  0  0
   -1.7211   -3.5752   -0.3134 N   0  0  0  0  0  0  0  0  0  0  0  0
   -1.9736   -2.6650    0.0891 H   0  0  0  0  0  0  0  0  0  0  0  0
   -2.4305   -4.2825   -0.3749 H   0  0  0  0  0  0  0  0  0  0  0  0
   -0.3266   -4.8803   -1.5954 N   0  0  0  0  0  0  0  0  0  0  0  0
   -1.0448   -5.5738   -1.6978 H   0  0  0  0  0  0  0  0  0  0  0  0
    0.4945   -4.9647   -2.1677 H   0  0  0  0  0  0  0  0  0  0  0  0
   -0.1520    2.5753    1.0111 C   0  0  0  0  0  0  0  0  0  0  0  0
    0.8137    1.9970    0.4966 O   0  0  0  0  0  0  0  0  0  0  0  0
   -0.3835    2.4852    2.3387 N   0  0  0  0  0  0  0  0  0  0  0  0
    0.1492    1.8309    2.8919 H   0  0  0  0  0  0  0  0  0  0  0  0
   -1.1928    2.9089    2.7538 H   0  0  0  0  0  0  0  0  0  0  0  0
   -0.9800    3.3550    0.2926 N   0  0  0  0  0  0  0  0  0  0  0  0
   -1.8182    3.7125    0.7155 H   0  0  0  0  0  0  0  0  0  0  0  0
   -1.0042    3.2012   -0.7143 H   0  0  0  0  0  0  0  0  0  0  0  0
    0.0789    2.7392   -2.9210 C   0  0  0  0  0  0  0  0  0  0  0  0
   -1.0146    2.4816   -2.4105 O   0  0  0  0  0  0  0  0  0  0  0  0
    1.2283    2.5779   -2.2358 N   0  0  0  0  0  0  0  0  0  0  0  0
    1.1532    2.3981   -1.2311 H   0  0  0  0  0  0  0  0  0  0  0  0
    2.0956    2.9326   -2.5961 H   0  0  0  0  0  0  0  0  0  0  0  0
    0.1750    3.1592   -4.2010 N   0  0  0  0  0  0  0  0  0  0  0  0
    1.0557    3.3437   -4.6444 H   0  0  0  0  0  0  0  0  0  0  0  0
   -0.6654    3.2385   -4.7451 H   0  0  0  0  0  0  0  0  0  0  0  0
   -2.1447   -0.1331   -0.2556 C   0  0  0  0  0  0  0  0  0  0  0  0
   -2.3172   -1.0242    0.5781 O   0  0  0  0  0  0  0  0  0  0  0  0
   -1.1982   -0.1910   -1.2065 N   0  0  0  0  0  0  0  0  0  0  0  0
   -0.6040   -1.0057   -1.2728 H   0  0  0  0  0  0  0  0  0  0  0  0
   -1.0528    0.6040   -1.8116 H   0  0  0  0  0  0  0  0  0  0  0  0
   -2.8727    1.0177   -0.2335 N   0  0  0  0  0  0  0  0  0  0  0  0
   -2.8219    1.6258   -1.0346 H   0  0  0  0  0  0  0  0  0  0  0  0
   -3.7281    1.0074    0.2948 H   0  0  0  0  0  0  0  0  0  0  0  0
  1  2  1  0  0  0  0
  2  3  1  0  0  0  0
  2  4  1  0  0  0  0
  2  5  1  0  0  0  0
  5  6  1  0  0  0  0
  5  7  1  0  0  0  0
  5  8  1  0  0  0  0
  8  9  1  0  0  0  0
  9 10  1  0  0  0  0
  9 11  1  0  0  0  0
  9 12  1  0  0  0  0
  8 13  1  0  0  0  0
 13 14  1  0  0  0  0
 13 15  1  0  0  0  0
 13 16  1  0  0  0  0
  8 17  1  0  0  0  0
 17 18  1  0  0  0  0
 17 19  1  0  0  0  0
 17 20  1  0  0  0  0
  1 21  1  0  0  0  0
 22 23  4  0  0  0  0
 22 24  4  0  0  0  0
 24 25  1  0  0  0  0
 24 26  1  0  0  0  0
 22 27  4  0  0  0  0
 27 28  1  0  0  0  0
 27 29  1  0  0  0  0
 30 31  4  0  0  0  0
 30 32  4  0  0  0  0
 32 33  1  0  0  0  0
 32 34  1  0  0  0  0
 30 35  4  0  0  0  0
 35 36  1  0  0  0  0
 35 37  1  0  0  0  0
 38 39  4  0  0  0  0
 38 40  4  0  0  0  0
 40 41  1  0  0  0  0
 40 42  1  0  0  0  0
 38 43  4  0  0  0  0
 43 44  1  0  0  0  0
 43 45  1  0  0  0  0
 46 47  2  0  0  0  0
 46 48  4  0  0  0  0
 48 49  1  0  0  0  0
 48 50  1  0  0  0  0
 46 51  1  0  0  0  0
 51 52  1  0  0  0  0
 51 53  1  0  0  0  0
M  CHG  1   1   1
M  END
