  53

 O          0.4851466335        0.4604584526        2.9802059108
 C         -0.8900708644        0.2484116702        3.0959679108
 H         -1.0574794686       -0.2520906734        4.0530235442
 H         -1.4284798257        1.2039699197        3.1243142076
 C         -1.4721813489       -0.5448118540        1.9163648713
 H         -1.0508301034       -0.1299094984        0.9970425505
 H         -2.5523749189       -0.4047793125        1.8803583124
 N         -1.1922143603       -2.0070106533        1.9016344840
 C          0.2614716578       -2.2376392369        1.8590362304
 H          0.6500255155       -1.8103486971        0.9363583213
 H          0.4700853307       -3.3051924213        1.8811470163
 H          0.7418846133       -1.7505605065        2.7050488747
 C         -1.7937987958       -2.5604683984        0.6747582816
 H         -2.8605772577       -2.3512526127        0.6493989931
 H         -1.6351041508       -3.6360437867        0.6326147277
 H         -1.3199029554       -2.0908979765       -0.1890837042
 C         -1.7758037617       -2.6756709040        3.0740890501
 H         -2.8354240017       -2.4383273066        3.1502373149
 H         -1.2741904498       -2.3579632191        3.9850649369
 H         -1.6630871896       -3.7545008232        2.9790760828
 H          0.6096532458        1.0938398660        2.2363545623
 C          3.5719313090       -1.5331722372       -1.9693137723
 O          3.4343096156       -0.3196137869       -2.1465346746
 N          4.6974326442       -2.1738887518       -2.3477745601
 H          5.4485100178       -1.6302423919       -2.7346315227
 H          4.8544226202       -3.1474770776       -2.1631233080
 N          2.6142408717       -2.2657889223       -1.3621090216
 H          2.6562720966       -3.2688663446       -1.3814597969
 H          1.7003882705       -1.8205472327       -1.2323025555
 C          1.3530165163        1.8013879767       -0.0650024368
 O          0.4392224951        1.9915037508        0.7454506601
 N          2.3419339294        0.9208103607        0.1485987748
 H          2.2736493100        0.3240320261        0.9555737278
 H          2.9071821869        0.5988087674       -0.6324914838
 N          1.4063356285        2.4776214800       -1.2405877826
 H          2.2413131338        2.4160847847       -1.7976272379
 H          0.8361220015        3.2997795735       -1.3383980257
 C         -3.2769476269        2.1230278498        0.2199594023
 O         -3.1707981094        0.9190447690       -0.0006467150
 N         -4.4939190210        2.7015606011        0.3894246128
 H         -5.3079470902        2.1521747145        0.1761573189
 H         -4.6024597216        3.6989319262        0.4302191994
 N         -2.2099955519        2.9472254094        0.3046153430
 H         -2.3346015511        3.8871539558        0.6379038028
 H         -1.2770528666        2.5513627010        0.4100434325
 C         -0.1354158810       -0.1554593015       -1.9551197520
 O          0.1647381051       -0.8974843720       -1.0069396043
 N          0.7354321530        0.0896223027       -2.9563992846
 H          1.7242751684       -0.0842271036       -2.7907725981
 H          0.5059545220        0.7672145366       -3.6612802736
 N         -1.3634671634        0.3768545425       -2.0694097330
 H         -1.5640258034        1.0141547433       -2.8189759739
 H         -2.0192768527        0.3652420251       -1.2890444282
