 xtb: 6.6.1 (unknown-commit)
          01102418243D

 53 48  0     0  0            999 V2000
    0.4852    0.4605    2.9802 O   0  0  0  0  0  0  0  0  0  0  0  0
   -0.8901    0.2484    3.0960 C   0  0  0  0  0  0  0  0  0  0  0  0
   -1.0575   -0.2521    4.0530 H   0  0  0  0  0  0  0  0  0  0  0  0
   -1.4285    1.2040    3.1243 H   0  0  0  0  0  0  0  0  0  0  0  0
   -1.4722   -0.5448    1.9164 C   0  0  0  0  0  0  0  0  0  0  0  0
   -1.0508   -0.1299    0.9970 H   0  0  0  0  0  0  0  0  0  0  0  0
   -2.5524   -0.4048    1.8804 H   0  0  0  0  0  0  0  0  0  0  0  0
   -1.1922   -2.0070    1.9016 N   0  0  0  0  0  0  0  0  0  0  0  0
    0.2615   -2.2376    1.8590 C   0  0  0  0  0  0  0  0  0  0  0  0
    0.6500   -1.8104    0.9364 H   0  0  0  0  0  0  0  0  0  0  0  0
    0.4701   -3.3052    1.8812 H   0  0  0  0  0  0  0  0  0  0  0  0
    0.7419   -1.7506    2.7050 H   0  0  0  0  0  0  0  0  0  0  0  0
   -1.7938   -2.5605    0.6748 C   0  0  0  0  0  0  0  0  0  0  0  0
   -2.8606   -2.3512    0.6494 H   0  0  0  0  0  0  0  0  0  0  0  0
   -1.6351   -3.6360    0.6326 H   0  0  0  0  0  0  0  0  0  0  0  0
   -1.3199   -2.0909   -0.1891 H   0  0  0  0  0  0  0  0  0  0  0  0
   -1.7758   -2.6757    3.0741 C   0  0  0  0  0  0  0  0  0  0  0  0
   -2.8354   -2.4383    3.1503 H   0  0  0  0  0  0  0  0  0  0  0  0
   -1.2742   -2.3579    3.9851 H   0  0  0  0  0  0  0  0  0  0  0  0
   -1.6631   -3.7545    2.9791 H   0  0  0  0  0  0  0  0  0  0  0  0
    0.6097    1.0938    2.2364 H   0  0  0  0  0  0  0  0  0  0  0  0
    3.5719   -1.5332   -1.9693 C   0  0  0  0  0  0  0  0  0  0  0  0
    3.4343   -0.3196   -2.1465 O   0  0  0  0  0  0  0  0  0  0  0  0
    4.6974   -2.1739   -2.3478 N   0  0  0  0  0  0  0  0  0  0  0  0
    5.4485   -1.6303   -2.7346 H   0  0  0  0  0  0  0  0  0  0  0  0
    4.8544   -3.1475   -2.1631 H   0  0  0  0  0  0  0  0  0  0  0  0
    2.6142   -2.2658   -1.3621 N   0  0  0  0  0  0  0  0  0  0  0  0
    2.6563   -3.2689   -1.3815 H   0  0  0  0  0  0  0  0  0  0  0  0
    1.7004   -1.8206   -1.2323 H   0  0  0  0  0  0  0  0  0  0  0  0
    1.3530    1.8014   -0.0650 C   0  0  0  0  0  0  0  0  0  0  0  0
    0.4392    1.9915    0.7454 O   0  0  0  0  0  0  0  0  0  0  0  0
    2.3419    0.9208    0.1486 N   0  0  0  0  0  0  0  0  0  0  0  0
    2.2737    0.3240    0.9556 H   0  0  0  0  0  0  0  0  0  0  0  0
    2.9072    0.5988   -0.6325 H   0  0  0  0  0  0  0  0  0  0  0  0
    1.4063    2.4776   -1.2406 N   0  0  0  0  0  0  0  0  0  0  0  0
    2.2413    2.4161   -1.7976 H   0  0  0  0  0  0  0  0  0  0  0  0
    0.8361    3.2998   -1.3384 H   0  0  0  0  0  0  0  0  0  0  0  0
   -3.2769    2.1230    0.2200 C   0  0  0  0  0  0  0  0  0  0  0  0
   -3.1708    0.9191   -0.0006 O   0  0  0  0  0  0  0  0  0  0  0  0
   -4.4939    2.7016    0.3894 N   0  0  0  0  0  0  0  0  0  0  0  0
   -5.3079    2.1522    0.1762 H   0  0  0  0  0  0  0  0  0  0  0  0
   -4.6024    3.6990    0.4302 H   0  0  0  0  0  0  0  0  0  0  0  0
   -2.2100    2.9472    0.3046 N   0  0  0  0  0  0  0  0  0  0  0  0
   -2.3346    3.8872    0.6379 H   0  0  0  0  0  0  0  0  0  0  0  0
   -1.2770    2.5514    0.4100 H   0  0  0  0  0  0  0  0  0  0  0  0
   -0.1354   -0.1555   -1.9551 C   0  0  0  0  0  0  0  0  0  0  0  0
    0.1647   -0.8975   -1.0069 O   0  0  0  0  0  0  0  0  0  0  0  0
    0.7354    0.0896   -2.9564 N   0  0  0  0  0  0  0  0  0  0  0  0
    1.7243   -0.0842   -2.7908 H   0  0  0  0  0  0  0  0  0  0  0  0
    0.5059    0.7672   -3.6613 H   0  0  0  0  0  0  0  0  0  0  0  0
   -1.3635    0.3769   -2.0694 N   0  0  0  0  0  0  0  0  0  0  0  0
   -1.5640    1.0142   -2.8190 H   0  0  0  0  0  0  0  0  0  0  0  0
   -2.0193    0.3653   -1.2890 H   0  0  0  0  0  0  0  0  0  0  0  0
  1  2  1  0  0  0  0
  2  3  1  0  0  0  0
  2  4  1  0  0  0  0
  2  5  1  0  0  0  0
  5  6  1  0  0  0  0
  5  7  1  0  0  0  0
  5  8  1  0  0  0  0
  8  9  1  0  0  0  0
  9 10  1  0  0  0  0
  9 11  1  0  0  0  0
  9 12  1  0  0  0  0
  8 13  1  0  0  0  0
 13 14  1  0  0  0  0
 13 15  1  0  0  0  0
 13 16  1  0  0  0  0
  8 17  1  0  0  0  0
 17 18  1  0  0  0  0
 17 19  1  0  0  0  0
 17 20  1  0  0  0  0
  1 21  1  0  0  0  0
 22 23  4  0  0  0  0
 22 24  4  0  0  0  0
 24 25  1  0  0  0  0
 24 26  1  0  0  0  0
 22 27  4  0  0  0  0
 27 28  1  0  0  0  0
 27 29  1  0  0  0  0
 30 31  4  0  0  0  0
 30 32  4  0  0  0  0
 32 33  1  0  0  0  0
 32 34  1  0  0  0  0
 30 35  4  0  0  0  0
 35 36  1  0  0  0  0
 35 37  1  0  0  0  0
 38 39  2  0  0  0  0
 38 40  4  0  0  0  0
 40 41  1  0  0  0  0
 40 42  1  0  0  0  0
 38 43  4  0  0  0  0
 43 44  1  0  0  0  0
 43 45  1  0  0  0  0
 46 47  4  0  0  0  0
 46 48  4  0  0  0  0
 48 49  1  0  0  0  0
 48 50  1  0  0  0  0
 46 51  4  0  0  0  0
 51 52  1  0  0  0  0
 51 53  1  0  0  0  0
M  CHG  1   1   1
M  END
