 xtb: 6.6.1 (unknown-commit)
          01102418303D

 53 48  0     0  0            999 V2000
   -1.1429    0.9015   -1.2668 O   0  0  0  0  0  0  0  0  0  0  0  0
   -0.0535    0.0313   -1.4608 C   0  0  0  0  0  0  0  0  0  0  0  0
   -0.2035   -0.4043   -2.4528 H   0  0  0  0  0  0  0  0  0  0  0  0
    0.8878    0.5839   -1.4689 H   0  0  0  0  0  0  0  0  0  0  0  0
   -0.0279   -1.1204   -0.4387 C   0  0  0  0  0  0  0  0  0  0  0  0
    0.2438   -2.0557   -0.9302 H   0  0  0  0  0  0  0  0  0  0  0  0
   -1.0370   -1.2139   -0.0327 H   0  0  0  0  0  0  0  0  0  0  0  0
    0.8966   -0.9714    0.7181 N   0  0  0  0  0  0  0  0  0  0  0  0
    2.2962   -1.0826    0.2794 C   0  0  0  0  0  0  0  0  0  0  0  0
    2.4232   -2.0194   -0.2598 H   0  0  0  0  0  0  0  0  0  0  0  0
    2.9506   -1.0757    1.1485 H   0  0  0  0  0  0  0  0  0  0  0  0
    2.5578   -0.2362   -0.3513 H   0  0  0  0  0  0  0  0  0  0  0  0
    0.5970   -2.0735    1.6468 C   0  0  0  0  0  0  0  0  0  0  0  0
    0.7254   -3.0204    1.1237 H   0  0  0  0  0  0  0  0  0  0  0  0
   -0.4271   -1.9801    2.0043 H   0  0  0  0  0  0  0  0  0  0  0  0
    1.2739   -2.0381    2.4980 H   0  0  0  0  0  0  0  0  0  0  0  0
    0.6863    0.3114    1.4017 C   0  0  0  0  0  0  0  0  0  0  0  0
   -0.3697    0.4203    1.6375 H   0  0  0  0  0  0  0  0  0  0  0  0
    1.0186    1.1311    0.7657 H   0  0  0  0  0  0  0  0  0  0  0  0
    1.2650    0.3356    2.3228 H   0  0  0  0  0  0  0  0  0  0  0  0
   -0.9321    1.5798   -0.5905 H   0  0  0  0  0  0  0  0  0  0  0  0
    1.7333   -4.9330   -1.4049 C   0  0  0  0  0  0  0  0  0  0  0  0
    1.4164   -3.9214   -0.7949 O   0  0  0  0  0  0  0  0  0  0  0  0
    2.5383   -4.8962   -2.4946 N   0  0  0  0  0  0  0  0  0  0  0  0
    2.8024   -4.0022   -2.8677 H   0  0  0  0  0  0  0  0  0  0  0  0
    2.7164   -5.7113   -3.0521 H   0  0  0  0  0  0  0  0  0  0  0  0
    1.3038   -6.1640   -1.0372 N   0  0  0  0  0  0  0  0  0  0  0  0
    1.6491   -6.9999   -1.4718 H   0  0  0  0  0  0  0  0  0  0  0  0
    0.7874   -6.2557   -0.1809 H   0  0  0  0  0  0  0  0  0  0  0  0
   -1.4161    3.3177    1.4806 C   0  0  0  0  0  0  0  0  0  0  0  0
   -0.7228    2.9176    0.5440 O   0  0  0  0  0  0  0  0  0  0  0  0
   -1.3667    4.6088    1.8856 N   0  0  0  0  0  0  0  0  0  0  0  0
   -0.7796    5.2531    1.3879 H   0  0  0  0  0  0  0  0  0  0  0  0
   -1.9432    4.9617    2.6267 H   0  0  0  0  0  0  0  0  0  0  0  0
   -2.2437    2.5076    2.1595 N   0  0  0  0  0  0  0  0  0  0  0  0
   -2.7925    2.8483    2.9270 H   0  0  0  0  0  0  0  0  0  0  0  0
   -2.3084    1.5204    1.9231 H   0  0  0  0  0  0  0  0  0  0  0  0
    2.5110    3.0138   -1.1341 C   0  0  0  0  0  0  0  0  0  0  0  0
    2.4456    1.8474   -0.7642 O   0  0  0  0  0  0  0  0  0  0  0  0
    1.5884    3.9357   -0.7843 N   0  0  0  0  0  0  0  0  0  0  0  0
    0.7388    3.6113   -0.3287 H   0  0  0  0  0  0  0  0  0  0  0  0
    1.5686    4.8296   -1.2411 H   0  0  0  0  0  0  0  0  0  0  0  0
    3.5247    3.4527   -1.9278 N   0  0  0  0  0  0  0  0  0  0  0  0
    3.6717    4.4318   -2.0941 H   0  0  0  0  0  0  0  0  0  0  0  0
    4.3029    2.8348   -2.0764 H   0  0  0  0  0  0  0  0  0  0  0  0
   -3.5475   -0.4750    0.8952 C   0  0  0  0  0  0  0  0  0  0  0  0
   -2.5429   -0.2554    1.5759 O   0  0  0  0  0  0  0  0  0  0  0  0
   -4.6816   -0.9623    1.4541 N   0  0  0  0  0  0  0  0  0  0  0  0
   -4.6657   -1.2212    2.4243 H   0  0  0  0  0  0  0  0  0  0  0  0
   -5.4754   -1.2310    0.9023 H   0  0  0  0  0  0  0  0  0  0  0  0
   -3.5682   -0.2528   -0.4299 N   0  0  0  0  0  0  0  0  0  0  0  0
   -4.4143   -0.3383   -0.9624 H   0  0  0  0  0  0  0  0  0  0  0  0
   -2.7614    0.2074   -0.8552 H   0  0  0  0  0  0  0  0  0  0  0  0
  1  2  1  0  0  0  0
  2  3  1  0  0  0  0
  2  4  1  0  0  0  0
  2  5  1  0  0  0  0
  5  6  1  0  0  0  0
  5  7  1  0  0  0  0
  5  8  1  0  0  0  0
  8  9  1  0  0  0  0
  9 10  1  0  0  0  0
  9 11  1  0  0  0  0
  9 12  1  0  0  0  0
  8 13  1  0  0  0  0
 13 14  1  0  0  0  0
 13 15  1  0  0  0  0
 13 16  1  0  0  0  0
  8 17  1  0  0  0  0
 17 18  1  0  0  0  0
 17 19  1  0  0  0  0
 17 20  1  0  0  0  0
  1 21  1  0  0  0  0
 22 23  2  0  0  0  0
 22 24  4  0  0  0  0
 24 25  1  0  0  0  0
 24 26  1  0  0  0  0
 22 27  4  0  0  0  0
 27 28  1  0  0  0  0
 27 29  1  0  0  0  0
 30 31  4  0  0  0  0
 30 32  4  0  0  0  0
 32 33  1  0  0  0  0
 32 34  1  0  0  0  0
 30 35  4  0  0  0  0
 35 36  1  0  0  0  0
 35 37  1  0  0  0  0
 38 39  2  0  0  0  0
 38 40  4  0  0  0  0
 40 41  1  0  0  0  0
 40 42  1  0  0  0  0
 38 43  1  0  0  0  0
 43 44  1  0  0  0  0
 43 45  1  0  0  0  0
 46 47  4  0  0  0  0
 46 48  4  0  0  0  0
 48 49  1  0  0  0  0
 48 50  1  0  0  0  0
 46 51  4  0  0  0  0
 51 52  1  0  0  0  0
 51 53  1  0  0  0  0
M  CHG  1   1   1
M  END
