  53

 O         -0.5554427966        0.9197391223       -1.2606665796
 C          0.4071275719        1.0854532386       -0.2396249726
 H          1.1646503066        0.3034112255       -0.2870464763
 H          0.8979118804        2.0431157912       -0.4395447904
 C         -0.2021855996        1.1983576114        1.1634334456
 H         -1.1555329269        1.7252806448        1.0809515187
 H          0.4941332588        1.7738940151        1.7757687106
 N         -0.4713967496       -0.0681381473        1.9022644114
 C         -1.3473760204       -0.9631101665        1.1345822360
 H         -2.2576863587       -0.4233064175        0.8742755213
 H         -1.6055895589       -1.8301375435        1.7397654066
 H         -0.8457483692       -1.3059172151        0.2331468255
 C         -1.1634775667        0.3129237040        3.1455012748
 H         -1.3670827574       -0.5715886372        3.7460865807
 H         -2.1058417286        0.8003097736        2.8986640879
 H         -0.5376746877        0.9939615156        3.7184469657
 C          0.7809283211       -0.7617064950        2.2408101775
 H          0.5718785514       -1.5929450782        2.9101427993
 H          1.4625273727       -0.0587663550        2.7203361198
 H          1.2636016155       -1.1424064049        1.3431272534
 H         -0.6266919282       -0.0273596893       -1.5024483420
 C          2.8699780711       -1.9404336332       -1.2235985876
 O          2.5609697390       -1.2519403358       -0.2560721770
 N          4.1681679883       -2.2249755921       -1.5047602738
 H          4.8579420718       -2.0004589138       -0.8092956928
 H          4.4152059227       -2.9107760842       -2.1953696906
 N          1.9519529855       -2.4540251423       -2.0685322325
 H          2.2389571811       -2.8921970012       -2.9250561798
 H          0.9842615376       -2.1624985739       -1.9875785371
 C          3.5842836116        1.8086977011        2.0399233279
 O          2.4805708186        1.7200010011        2.5591884342
 N          4.0599611482        0.8983292956        1.1575264771
 H          3.4503404003        0.1788355493        0.7884513568
 H          4.9070664272        1.0868113296        0.6524497953
 N          4.4167323165        2.8502169531        2.3128217108
 H          5.3833265768        2.8340976219        2.0413559959
 H          4.1607834133        3.4552850241        3.0735532001
 C         -3.8860020473        1.7771379354       -0.1162377169
 O         -3.3795224268        1.3405785014        0.9064566375
 N         -5.1248106084        2.3180017412       -0.1313377945
 H         -5.6370105210        2.3667737881        0.7312713308
 H         -5.5470331337        2.6905800881       -0.9617151675
 N         -3.2599732843        1.6728198216       -1.3296701260
 H         -3.5902081599        2.2555587525       -2.0817624913
 H         -2.2437564522        1.5545128132       -1.2910351405
 C         -1.9325852878       -2.0253468649       -2.4646767943
 O         -0.8713429004       -1.6989623423       -1.9271659270
 N         -3.0286875187       -1.2459551968       -2.4202468972
 H         -2.9934856295       -0.3302486240       -1.9911034147
 H         -3.8717533178       -1.5114316748       -2.8956601456
 N         -2.0508318130       -3.1976748689       -3.1235592224
 H         -2.9181112529       -3.5031179113       -3.5251515592
 H         -1.2731420324       -3.8329907115       -3.1289151301
