 xtb: 6.6.1 (unknown-commit)
          01102418313D

 53 48  0     0  0            999 V2000
   -0.5554    0.9197   -1.2607 O   0  0  0  0  0  0  0  0  0  0  0  0
    0.4071    1.0855   -0.2396 C   0  0  0  0  0  0  0  0  0  0  0  0
    1.1647    0.3034   -0.2871 H   0  0  0  0  0  0  0  0  0  0  0  0
    0.8979    2.0431   -0.4396 H   0  0  0  0  0  0  0  0  0  0  0  0
   -0.2022    1.1984    1.1634 C   0  0  0  0  0  0  0  0  0  0  0  0
   -1.1555    1.7253    1.0810 H   0  0  0  0  0  0  0  0  0  0  0  0
    0.4941    1.7739    1.7758 H   0  0  0  0  0  0  0  0  0  0  0  0
   -0.4714   -0.0681    1.9023 N   0  0  0  0  0  0  0  0  0  0  0  0
   -1.3474   -0.9631    1.1346 C   0  0  0  0  0  0  0  0  0  0  0  0
   -2.2577   -0.4233    0.8743 H   0  0  0  0  0  0  0  0  0  0  0  0
   -1.6056   -1.8301    1.7398 H   0  0  0  0  0  0  0  0  0  0  0  0
   -0.8458   -1.3059    0.2332 H   0  0  0  0  0  0  0  0  0  0  0  0
   -1.1635    0.3129    3.1455 C   0  0  0  0  0  0  0  0  0  0  0  0
   -1.3671   -0.5716    3.7461 H   0  0  0  0  0  0  0  0  0  0  0  0
   -2.1058    0.8003    2.8987 H   0  0  0  0  0  0  0  0  0  0  0  0
   -0.5377    0.9940    3.7184 H   0  0  0  0  0  0  0  0  0  0  0  0
    0.7809   -0.7617    2.2408 C   0  0  0  0  0  0  0  0  0  0  0  0
    0.5719   -1.5929    2.9101 H   0  0  0  0  0  0  0  0  0  0  0  0
    1.4625   -0.0588    2.7203 H   0  0  0  0  0  0  0  0  0  0  0  0
    1.2636   -1.1424    1.3431 H   0  0  0  0  0  0  0  0  0  0  0  0
   -0.6267   -0.0274   -1.5024 H   0  0  0  0  0  0  0  0  0  0  0  0
    2.8700   -1.9405   -1.2236 C   0  0  0  0  0  0  0  0  0  0  0  0
    2.5610   -1.2520   -0.2561 O   0  0  0  0  0  0  0  0  0  0  0  0
    4.1682   -2.2250   -1.5048 N   0  0  0  0  0  0  0  0  0  0  0  0
    4.8579   -2.0005   -0.8093 H   0  0  0  0  0  0  0  0  0  0  0  0
    4.4152   -2.9108   -2.1954 H   0  0  0  0  0  0  0  0  0  0  0  0
    1.9519   -2.4540   -2.0685 N   0  0  0  0  0  0  0  0  0  0  0  0
    2.2389   -2.8922   -2.9251 H   0  0  0  0  0  0  0  0  0  0  0  0
    0.9842   -2.1625   -1.9876 H   0  0  0  0  0  0  0  0  0  0  0  0
    3.5843    1.8087    2.0399 C   0  0  0  0  0  0  0  0  0  0  0  0
    2.4806    1.7200    2.5592 O   0  0  0  0  0  0  0  0  0  0  0  0
    4.0600    0.8983    1.1575 N   0  0  0  0  0  0  0  0  0  0  0  0
    3.4503    0.1788    0.7884 H   0  0  0  0  0  0  0  0  0  0  0  0
    4.9071    1.0868    0.6524 H   0  0  0  0  0  0  0  0  0  0  0  0
    4.4168    2.8502    2.3128 N   0  0  0  0  0  0  0  0  0  0  0  0
    5.3833    2.8341    2.0413 H   0  0  0  0  0  0  0  0  0  0  0  0
    4.1608    3.4553    3.0735 H   0  0  0  0  0  0  0  0  0  0  0  0
   -3.8860    1.7772   -0.1162 C   0  0  0  0  0  0  0  0  0  0  0  0
   -3.3795    1.3406    0.9065 O   0  0  0  0  0  0  0  0  0  0  0  0
   -5.1248    2.3180   -0.1313 N   0  0  0  0  0  0  0  0  0  0  0  0
   -5.6370    2.3668    0.7313 H   0  0  0  0  0  0  0  0  0  0  0  0
   -5.5470    2.6906   -0.9617 H   0  0  0  0  0  0  0  0  0  0  0  0
   -3.2600    1.6728   -1.3297 N   0  0  0  0  0  0  0  0  0  0  0  0
   -3.5902    2.2556   -2.0818 H   0  0  0  0  0  0  0  0  0  0  0  0
   -2.2438    1.5545   -1.2910 H   0  0  0  0  0  0  0  0  0  0  0  0
   -1.9326   -2.0253   -2.4647 C   0  0  0  0  0  0  0  0  0  0  0  0
   -0.8714   -1.6990   -1.9272 O   0  0  0  0  0  0  0  0  0  0  0  0
   -3.0287   -1.2459   -2.4202 N   0  0  0  0  0  0  0  0  0  0  0  0
   -2.9935   -0.3302   -1.9911 H   0  0  0  0  0  0  0  0  0  0  0  0
   -3.8718   -1.5114   -2.8956 H   0  0  0  0  0  0  0  0  0  0  0  0
   -2.0509   -3.1977   -3.1235 N   0  0  0  0  0  0  0  0  0  0  0  0
   -2.9181   -3.5031   -3.5251 H   0  0  0  0  0  0  0  0  0  0  0  0
   -1.2732   -3.8330   -3.1289 H   0  0  0  0  0  0  0  0  0  0  0  0
  1  2  1  0  0  0  0
  2  3  1  0  0  0  0
  2  4  1  0  0  0  0
  2  5  1  0  0  0  0
  5  6  1  0  0  0  0
  5  7  1  0  0  0  0
  5  8  1  0  0  0  0
  8  9  1  0  0  0  0
  9 10  1  0  0  0  0
  9 11  1  0  0  0  0
  9 12  1  0  0  0  0
  8 13  1  0  0  0  0
 13 14  1  0  0  0  0
 13 15  1  0  0  0  0
 13 16  1  0  0  0  0
  8 17  1  0  0  0  0
 17 18  1  0  0  0  0
 17 19  1  0  0  0  0
 17 20  1  0  0  0  0
  1 21  1  0  0  0  0
 22 23  2  0  0  0  0
 22 24  1  0  0  0  0
 24 25  1  0  0  0  0
 24 26  1  0  0  0  0
 22 27  4  0  0  0  0
 27 28  1  0  0  0  0
 27 29  1  0  0  0  0
 30 31  2  0  0  0  0
 30 32  4  0  0  0  0
 32 33  1  0  0  0  0
 32 34  1  0  0  0  0
 30 35  1  0  0  0  0
 35 36  1  0  0  0  0
 35 37  1  0  0  0  0
 38 39  2  0  0  0  0
 38 40  4  0  0  0  0
 40 41  1  0  0  0  0
 40 42  1  0  0  0  0
 38 43  1  0  0  0  0
 43 44  1  0  0  0  0
 43 45  1  0  0  0  0
 46 47  4  0  0  0  0
 46 48  4  0  0  0  0
 48 49  1  0  0  0  0
 48 50  1  0  0  0  0
 46 51  4  0  0  0  0
 51 52  1  0  0  0  0
 51 53  1  0  0  0  0
M  CHG  1   1   1
M  END
