 xtb: 6.6.1 (unknown-commit)
          01102415333D

 53 48  0     0  0            999 V2000
   -1.0198   -0.3264   -2.9942 O   0  0  0  0  0  0  0  0  0  0  0  0
    0.1916   -0.1082   -2.3319 C   0  0  0  0  0  0  0  0  0  0  0  0
    0.9780   -0.5122   -2.9741 H   0  0  0  0  0  0  0  0  0  0  0  0
    0.3860    0.9649   -2.2117 H   0  0  0  0  0  0  0  0  0  0  0  0
    0.2460   -0.7190   -0.9236 C   0  0  0  0  0  0  0  0  0  0  0  0
   -0.6739   -0.4642   -0.3954 H   0  0  0  0  0  0  0  0  0  0  0  0
    1.0985   -0.2972   -0.3912 H   0  0  0  0  0  0  0  0  0  0  0  0
    0.3718   -2.2006   -0.8516 N   0  0  0  0  0  0  0  0  0  0  0  0
    0.4015   -2.5621    0.5769 C   0  0  0  0  0  0  0  0  0  0  0  0
    1.2879   -2.1332    1.0388 H   0  0  0  0  0  0  0  0  0  0  0  0
    0.4243   -3.6445    0.6863 H   0  0  0  0  0  0  0  0  0  0  0  0
   -0.4891   -2.1661    1.0660 H   0  0  0  0  0  0  0  0  0  0  0  0
    1.6213   -2.6567   -1.4793 C   0  0  0  0  0  0  0  0  0  0  0  0
    1.5816   -2.5139   -2.5560 H   0  0  0  0  0  0  0  0  0  0  0  0
    1.7713   -3.7154   -1.2765 H   0  0  0  0  0  0  0  0  0  0  0  0
    2.4540   -2.0885   -1.0628 H   0  0  0  0  0  0  0  0  0  0  0  0
   -0.7898   -2.8404   -1.4888 C   0  0  0  0  0  0  0  0  0  0  0  0
   -0.8990   -2.4848   -2.5117 H   0  0  0  0  0  0  0  0  0  0  0  0
   -1.6882   -2.5734   -0.9361 H   0  0  0  0  0  0  0  0  0  0  0  0
   -0.6716   -3.9221   -1.4838 H   0  0  0  0  0  0  0  0  0  0  0  0
   -1.6985    0.2580   -2.6037 H   0  0  0  0  0  0  0  0  0  0  0  0
    3.6776    0.6290   -0.3769 C   0  0  0  0  0  0  0  0  0  0  0  0
    3.1973   -0.3958    0.1220 O   0  0  0  0  0  0  0  0  0  0  0  0
    3.1004    1.8300   -0.2193 N   0  0  0  0  0  0  0  0  0  0  0  0
    2.3212    1.9283    0.4379 H   0  0  0  0  0  0  0  0  0  0  0  0
    3.5398    2.6640   -0.5640 H   0  0  0  0  0  0  0  0  0  0  0  0
    4.7731    0.5691   -1.1691 N   0  0  0  0  0  0  0  0  0  0  0  0
    5.2283    1.3972   -1.5073 H   0  0  0  0  0  0  0  0  0  0  0  0
    5.2646   -0.3037   -1.2441 H   0  0  0  0  0  0  0  0  0  0  0  0
   -1.6907    2.0816   -0.6594 C   0  0  0  0  0  0  0  0  0  0  0  0
   -2.4328    1.4590   -1.4268 O   0  0  0  0  0  0  0  0  0  0  0  0
   -0.9967    3.1678   -1.0869 N   0  0  0  0  0  0  0  0  0  0  0  0
   -1.2818    3.5872   -1.9558 H   0  0  0  0  0  0  0  0  0  0  0  0
   -0.5305    3.7534   -0.4164 H   0  0  0  0  0  0  0  0  0  0  0  0
   -1.4981    1.7197    0.6216 N   0  0  0  0  0  0  0  0  0  0  0  0
   -0.6805    2.0616    1.1119 H   0  0  0  0  0  0  0  0  0  0  0  0
   -1.8480    0.8088    0.9058 H   0  0  0  0  0  0  0  0  0  0  0  0
   -3.5202   -1.1747    0.6804 C   0  0  0  0  0  0  0  0  0  0  0  0
   -2.3238   -1.0503    0.9648 O   0  0  0  0  0  0  0  0  0  0  0  0
   -4.2892   -2.1112    1.2960 N   0  0  0  0  0  0  0  0  0  0  0  0
   -3.9161   -2.5660    2.1108 H   0  0  0  0  0  0  0  0  0  0  0  0
   -5.2868   -2.1175    1.1806 H   0  0  0  0  0  0  0  0  0  0  0  0
   -4.0972   -0.4545   -0.2883 N   0  0  0  0  0  0  0  0  0  0  0  0
   -5.0741   -0.5411   -0.4993 H   0  0  0  0  0  0  0  0  0  0  0  0
   -3.5500    0.2659   -0.7702 H   0  0  0  0  0  0  0  0  0  0  0  0
    1.3062    1.2456    2.7149 C   0  0  0  0  0  0  0  0  0  0  0  0
    1.0979    1.9611    1.7308 O   0  0  0  0  0  0  0  0  0  0  0  0
    2.0112    0.1025    2.6294 N   0  0  0  0  0  0  0  0  0  0  0  0
    2.4889   -0.1128    1.7529 H   0  0  0  0  0  0  0  0  0  0  0  0
    2.2846   -0.3961    3.4566 H   0  0  0  0  0  0  0  0  0  0  0  0
    0.7892    1.5556    3.9242 N   0  0  0  0  0  0  0  0  0  0  0  0
    0.9518    0.9948    4.7399 H   0  0  0  0  0  0  0  0  0  0  0  0
    0.2520    2.3984    4.0209 H   0  0  0  0  0  0  0  0  0  0  0  0
  1  2  1  0  0  0  0
  2  3  1  0  0  0  0
  2  4  1  0  0  0  0
  2  5  1  0  0  0  0
  5  6  1  0  0  0  0
  5  7  1  0  0  0  0
  5  8  1  0  0  0  0
  8  9  1  0  0  0  0
  9 10  1  0  0  0  0
  9 11  1  0  0  0  0
  9 12  1  0  0  0  0
  8 13  1  0  0  0  0
 13 14  1  0  0  0  0
 13 15  1  0  0  0  0
 13 16  1  0  0  0  0
  8 17  1  0  0  0  0
 17 18  1  0  0  0  0
 17 19  1  0  0  0  0
 17 20  1  0  0  0  0
  1 21  1  0  0  0  0
 22 23  4  0  0  0  0
 22 24  4  0  0  0  0
 24 25  1  0  0  0  0
 24 26  1  0  0  0  0
 22 27  4  0  0  0  0
 27 28  1  0  0  0  0
 27 29  1  0  0  0  0
 30 31  4  0  0  0  0
 30 32  4  0  0  0  0
 32 33  1  0  0  0  0
 32 34  1  0  0  0  0
 30 35  4  0  0  0  0
 35 36  1  0  0  0  0
 35 37  1  0  0  0  0
 38 39  4  0  0  0  0
 38 40  1  0  0  0  0
 40 41  1  0  0  0  0
 40 42  1  0  0  0  0
 38 43  4  0  0  0  0
 43 44  1  0  0  0  0
 43 45  1  0  0  0  0
 46 47  4  0  0  0  0
 46 48  4  0  0  0  0
 48 49  1  0  0  0  0
 48 50  1  0  0  0  0
 46 51  4  0  0  0  0
 51 52  1  0  0  0  0
 51 53  1  0  0  0  0
M  CHG  1   1   1
M  END
