 xtb: 6.6.1 (unknown-commit)
          01102415423D

 53 48  0     0  0            999 V2000
   -2.0842   -0.5431   -1.1617 O   0  0  0  0  0  0  0  0  0  0  0  0
   -0.9333   -1.2004   -1.6199 C   0  0  0  0  0  0  0  0  0  0  0  0
   -1.2032   -2.0317   -2.2805 H   0  0  0  0  0  0  0  0  0  0  0  0
   -0.3690   -0.4635   -2.2014 H   0  0  0  0  0  0  0  0  0  0  0  0
    0.0406   -1.6621   -0.5240 C   0  0  0  0  0  0  0  0  0  0  0  0
    0.3584   -0.7896    0.0525 H   0  0  0  0  0  0  0  0  0  0  0  0
    0.9111   -2.0667   -1.0434 H   0  0  0  0  0  0  0  0  0  0  0  0
   -0.4298   -2.6866    0.4510 N   0  0  0  0  0  0  0  0  0  0  0  0
    0.7583   -3.1854    1.1686 C   0  0  0  0  0  0  0  0  0  0  0  0
    1.2504   -2.3386    1.6517 H   0  0  0  0  0  0  0  0  0  0  0  0
    1.4457   -3.6699    0.4785 H   0  0  0  0  0  0  0  0  0  0  0  0
    0.4589   -3.9024    1.9301 H   0  0  0  0  0  0  0  0  0  0  0  0
   -1.1096   -3.8071   -0.2175 C   0  0  0  0  0  0  0  0  0  0  0  0
   -1.2643   -4.6157    0.4948 H   0  0  0  0  0  0  0  0  0  0  0  0
   -0.5011   -4.1780   -1.0402 H   0  0  0  0  0  0  0  0  0  0  0  0
   -2.0839   -3.4934   -0.5897 H   0  0  0  0  0  0  0  0  0  0  0  0
   -1.3289   -2.0746    1.4457 C   0  0  0  0  0  0  0  0  0  0  0  0
   -1.6127   -2.8192    2.1865 H   0  0  0  0  0  0  0  0  0  0  0  0
   -2.2279   -1.6995    0.9663 H   0  0  0  0  0  0  0  0  0  0  0  0
   -0.7994   -1.2596    1.9382 H   0  0  0  0  0  0  0  0  0  0  0  0
   -2.7772   -1.2182   -0.9618 H   0  0  0  0  0  0  0  0  0  0  0  0
    4.0257    3.2724   -0.6879 C   0  0  0  0  0  0  0  0  0  0  0  0
    3.6790    3.2657    0.4973 O   0  0  0  0  0  0  0  0  0  0  0  0
    5.0678    4.0284   -1.1033 N   0  0  0  0  0  0  0  0  0  0  0  0
    5.5926    4.5367   -0.4144 H   0  0  0  0  0  0  0  0  0  0  0  0
    5.4127    3.9975   -2.0449 H   0  0  0  0  0  0  0  0  0  0  0  0
    3.4054    2.5184   -1.6128 N   0  0  0  0  0  0  0  0  0  0  0  0
    3.6202    2.6245   -2.5876 H   0  0  0  0  0  0  0  0  0  0  0  0
    2.5263    2.0543   -1.3592 H   0  0  0  0  0  0  0  0  0  0  0  0
    1.9684    0.5391    2.1689 C   0  0  0  0  0  0  0  0  0  0  0  0
    1.1408   -0.3702    2.1633 O   0  0  0  0  0  0  0  0  0  0  0  0
    1.9494    1.5188    3.1076 N   0  0  0  0  0  0  0  0  0  0  0  0
    1.3890    1.3808    3.9301 H   0  0  0  0  0  0  0  0  0  0  0  0
    2.7085    2.1758    3.1546 H   0  0  0  0  0  0  0  0  0  0  0  0
    2.9673    0.6282    1.2613 N   0  0  0  0  0  0  0  0  0  0  0  0
    3.4064    1.5361    1.1303 H   0  0  0  0  0  0  0  0  0  0  0  0
    2.8463    0.0979    0.4133 H   0  0  0  0  0  0  0  0  0  0  0  0
   -4.9877   -2.2252   -1.3094 C   0  0  0  0  0  0  0  0  0  0  0  0
   -3.9038   -2.4530   -0.7668 O   0  0  0  0  0  0  0  0  0  0  0  0
   -5.1953   -1.1084   -2.0353 N   0  0  0  0  0  0  0  0  0  0  0  0
   -4.4484   -0.4419   -2.1359 H   0  0  0  0  0  0  0  0  0  0  0  0
   -6.0742   -0.9140   -2.4786 H   0  0  0  0  0  0  0  0  0  0  0  0
   -6.0183   -3.0867   -1.2137 N   0  0  0  0  0  0  0  0  0  0  0  0
   -6.9132   -2.9041   -1.6290 H   0  0  0  0  0  0  0  0  0  0  0  0
   -5.9053   -3.9177   -0.6611 H   0  0  0  0  0  0  0  0  0  0  0  0
    0.3284    2.0466   -0.0051 C   0  0  0  0  0  0  0  0  0  0  0  0
    0.9859    1.3560   -0.7869 O   0  0  0  0  0  0  0  0  0  0  0  0
    0.8426    3.1361    0.6027 N   0  0  0  0  0  0  0  0  0  0  0  0
    1.8529    3.2700    0.5938 H   0  0  0  0  0  0  0  0  0  0  0  0
    0.3296    3.5921    1.3356 H   0  0  0  0  0  0  0  0  0  0  0  0
   -0.9578    1.7423    0.2908 N   0  0  0  0  0  0  0  0  0  0  0  0
   -1.5263    2.3889    0.8067 H   0  0  0  0  0  0  0  0  0  0  0  0
   -1.4265    1.0365   -0.2613 H   0  0  0  0  0  0  0  0  0  0  0  0
  1  2  1  0  0  0  0
  2  3  1  0  0  0  0
  2  4  1  0  0  0  0
  2  5  1  0  0  0  0
  5  6  1  0  0  0  0
  5  7  1  0  0  0  0
  5  8  1  0  0  0  0
  8  9  1  0  0  0  0
  9 10  1  0  0  0  0
  9 11  1  0  0  0  0
  9 12  1  0  0  0  0
  8 13  1  0  0  0  0
 13 14  1  0  0  0  0
 13 15  1  0  0  0  0
 13 16  1  0  0  0  0
  8 17  1  0  0  0  0
 17 18  1  0  0  0  0
 17 19  1  0  0  0  0
 17 20  1  0  0  0  0
  1 21  1  0  0  0  0
 22 23  4  0  0  0  0
 22 24  4  0  0  0  0
 24 25  1  0  0  0  0
 24 26  1  0  0  0  0
 22 27  4  0  0  0  0
 27 28  1  0  0  0  0
 27 29  1  0  0  0  0
 30 31  2  0  0  0  0
 30 32  4  0  0  0  0
 32 33  1  0  0  0  0
 32 34  1  0  0  0  0
 30 35  4  0  0  0  0
 35 36  1  0  0  0  0
 35 37  1  0  0  0  0
 38 39  4  0  0  0  0
 38 40  4  0  0  0  0
 40 41  1  0  0  0  0
 40 42  1  0  0  0  0
 38 43  4  0  0  0  0
 43 44  1  0  0  0  0
 43 45  1  0  0  0  0
 46 47  2  0  0  0  0
 46 48  4  0  0  0  0
 48 49  1  0  0  0  0
 48 50  1  0  0  0  0
 46 51  4  0  0  0  0
 51 52  1  0  0  0  0
 51 53  1  0  0  0  0
M  CHG  1   1   1
M  END
