 xtb: 6.6.1 (unknown-commit)
          01102418303D

 53 48  0     0  0            999 V2000
    2.0295    1.5050   -2.1068 O   0  0  0  0  0  0  0  0  0  0  0  0
    0.6482    1.6268   -1.9142 C   0  0  0  0  0  0  0  0  0  0  0  0
    0.4625    2.6817   -1.6998 H   0  0  0  0  0  0  0  0  0  0  0  0
    0.1047    1.3752   -2.8359 H   0  0  0  0  0  0  0  0  0  0  0  0
    0.0929    0.7113   -0.8183 C   0  0  0  0  0  0  0  0  0  0  0  0
    0.4627   -0.2955   -1.0151 H   0  0  0  0  0  0  0  0  0  0  0  0
   -0.9988    0.6962   -0.8656 H   0  0  0  0  0  0  0  0  0  0  0  0
    0.4571    1.0606    0.5790 N   0  0  0  0  0  0  0  0  0  0  0  0
    1.9116    1.1780    0.7575 C   0  0  0  0  0  0  0  0  0  0  0  0
    2.3926    0.2418    0.4815 H   0  0  0  0  0  0  0  0  0  0  0  0
    2.1122    1.3999    1.8048 H   0  0  0  0  0  0  0  0  0  0  0  0
    2.3097    1.9673    0.1246 H   0  0  0  0  0  0  0  0  0  0  0  0
   -0.0419   -0.0098    1.4591 C   0  0  0  0  0  0  0  0  0  0  0  0
    0.4153   -0.9594    1.1892 H   0  0  0  0  0  0  0  0  0  0  0  0
   -1.1217   -0.0827    1.3427 H   0  0  0  0  0  0  0  0  0  0  0  0
    0.2088    0.2408    2.4885 H   0  0  0  0  0  0  0  0  0  0  0  0
   -0.1939    2.3144    0.9886 C   0  0  0  0  0  0  0  0  0  0  0  0
   -1.2698    2.2108    0.8597 H   0  0  0  0  0  0  0  0  0  0  0  0
    0.1696    3.1458    0.3910 H   0  0  0  0  0  0  0  0  0  0  0  0
    0.0397    2.4993    2.0358 H   0  0  0  0  0  0  0  0  0  0  0  0
    2.2400    0.5750   -2.2966 H   0  0  0  0  0  0  0  0  0  0  0  0
    2.2815   -2.3286   -1.4730 C   0  0  0  0  0  0  0  0  0  0  0  0
    2.1969   -1.3436   -2.2104 O   0  0  0  0  0  0  0  0  0  0  0  0
    3.4854   -2.8283   -1.1106 N   0  0  0  0  0  0  0  0  0  0  0  0
    4.3048   -2.4518   -1.5545 H   0  0  0  0  0  0  0  0  0  0  0  0
    3.5747   -3.6920   -0.6069 H   0  0  0  0  0  0  0  0  0  0  0  0
    1.1894   -2.8883   -0.9123 N   0  0  0  0  0  0  0  0  0  0  0  0
    1.2568   -3.7788   -0.4518 H   0  0  0  0  0  0  0  0  0  0  0  0
    0.2714   -2.6185   -1.2818 H   0  0  0  0  0  0  0  0  0  0  0  0
    1.4647    2.1374    4.9147 C   0  0  0  0  0  0  0  0  0  0  0  0
    1.2143    1.7705    3.7751 O   0  0  0  0  0  0  0  0  0  0  0  0
    2.5500    2.8924    5.2087 N   0  0  0  0  0  0  0  0  0  0  0  0
    3.2129    3.0894    4.4808 H   0  0  0  0  0  0  0  0  0  0  0  0
    2.8023    3.1202    6.1527 H   0  0  0  0  0  0  0  0  0  0  0  0
    0.6747    1.8139    5.9670 N   0  0  0  0  0  0  0  0  0  0  0  0
    0.8228    2.1979    6.8821 H   0  0  0  0  0  0  0  0  0  0  0  0
   -0.1915    1.3386    5.7880 H   0  0  0  0  0  0  0  0  0  0  0  0
   -1.2032   -1.6224   -3.2306 C   0  0  0  0  0  0  0  0  0  0  0  0
   -1.2143   -1.9850   -2.0486 O   0  0  0  0  0  0  0  0  0  0  0  0
   -0.0685   -1.2864   -3.8605 N   0  0  0  0  0  0  0  0  0  0  0  0
    0.8139   -1.3135   -3.3493 H   0  0  0  0  0  0  0  0  0  0  0  0
   -0.0590   -1.0289   -4.8300 H   0  0  0  0  0  0  0  0  0  0  0  0
   -2.3485   -1.5362   -3.9444 N   0  0  0  0  0  0  0  0  0  0  0  0
   -2.3613   -1.2335   -4.9006 H   0  0  0  0  0  0  0  0  0  0  0  0
   -3.2199   -1.7534   -3.4959 H   0  0  0  0  0  0  0  0  0  0  0  0
   -3.7593   -0.2219    0.0271 C   0  0  0  0  0  0  0  0  0  0  0  0
   -2.8298    0.5613    0.1771 O   0  0  0  0  0  0  0  0  0  0  0  0
   -4.9564   -0.0326    0.6446 N   0  0  0  0  0  0  0  0  0  0  0  0
   -5.1115    0.8514    1.0968 H   0  0  0  0  0  0  0  0  0  0  0  0
   -5.7658   -0.5713    0.3937 H   0  0  0  0  0  0  0  0  0  0  0  0
   -3.6633   -1.3249   -0.7506 N   0  0  0  0  0  0  0  0  0  0  0  0
   -4.3662   -2.0404   -0.6920 H   0  0  0  0  0  0  0  0  0  0  0  0
   -2.7451   -1.5941   -1.1019 H   0  0  0  0  0  0  0  0  0  0  0  0
  1  2  1  0  0  0  0
  2  3  1  0  0  0  0
  2  4  1  0  0  0  0
  2  5  1  0  0  0  0
  5  6  1  0  0  0  0
  5  7  1  0  0  0  0
  5  8  1  0  0  0  0
  8  9  1  0  0  0  0
  9 10  1  0  0  0  0
  9 11  1  0  0  0  0
  9 12  1  0  0  0  0
  8 13  1  0  0  0  0
 13 14  1  0  0  0  0
 13 15  1  0  0  0  0
 13 16  1  0  0  0  0
  8 17  1  0  0  0  0
 17 18  1  0  0  0  0
 17 19  1  0  0  0  0
 17 20  1  0  0  0  0
  1 21  1  0  0  0  0
 22 23  4  0  0  0  0
 22 24  4  0  0  0  0
 24 25  1  0  0  0  0
 24 26  1  0  0  0  0
 22 27  4  0  0  0  0
 27 28  1  0  0  0  0
 27 29  1  0  0  0  0
 30 31  2  0  0  0  0
 30 32  4  0  0  0  0
 32 33  1  0  0  0  0
 32 34  1  0  0  0  0
 30 35  4  0  0  0  0
 35 36  1  0  0  0  0
 35 37  1  0  0  0  0
 38 39  4  0  0  0  0
 38 40  4  0  0  0  0
 40 41  1  0  0  0  0
 40 42  1  0  0  0  0
 38 43  4  0  0  0  0
 43 44  1  0  0  0  0
 43 45  1  0  0  0  0
 46 47  2  0  0  0  0
 46 48  1  0  0  0  0
 48 49  1  0  0  0  0
 48 50  1  0  0  0  0
 46 51  4  0  0  0  0
 51 52  1  0  0  0  0
 51 53  1  0  0  0  0
M  CHG  1   1   1
M  END
