  53

 O          1.8334876375       -4.7621390256       -2.4509133707
 C          2.3648206332       -3.4634981022       -2.4563514790
 H          2.6591099921       -3.2528733064       -1.4267024725
 H          3.2683915000       -3.4082494129       -3.0749645314
 C          1.3987125829       -2.3872070954       -2.9754753529
 H          1.0822364971       -2.6466987071       -3.9891428127
 H          1.9411543709       -1.4379717439       -3.0019260360
 N          0.1746894693       -2.1585497979       -2.1631341657
 C         -0.7188497173       -3.3281012741       -2.1464730091
 H         -1.0389662903       -3.5722357123       -3.1576680983
 H         -1.5926029679       -3.0830140058       -1.5442792024
 H         -0.2058981022       -4.1874672057       -1.7201682533
 C         -0.5529912546       -1.0220841898       -2.7566446545
 H         -0.8725045243       -1.2652738661       -3.7677769007
 H          0.0987672873       -0.1527550100       -2.7804078361
 H         -1.4253970845       -0.8084968610       -2.1390952193
 C          0.5149769024       -1.8072511847       -0.7744807820
 H          1.2083083507       -0.9699769159       -0.7738136550
 H          0.9482529370       -2.6597583791       -0.2598283780
 H         -0.4095043686       -1.5161975314       -0.2734343886
 H          1.8435797136       -5.1363035941       -3.3383468368
 C          3.1897886853        0.8964140352       -1.2013754008
 O          2.2492301873        0.5674967088       -1.9328145065
 N          3.0146093323        1.1744083325        0.0984880682
 H          2.0673223415        1.2090934745        0.4918049559
 H          3.7798753863        1.4825750932        0.6697424464
 N          4.4616289488        0.9227046934       -1.6713618951
 H          5.2134220095        1.3066196420       -1.1278977683
 H          4.6041596009        0.8259990757       -2.6611777444
 C         -0.3851593312        1.9338821056        0.2397850908
 O          0.3989536501        1.4029141688        1.0420990867
 N         -1.4916771817        2.5759756042        0.6471650794
 H         -1.8051390643        2.4669064675        1.6129002179
 H         -2.1703314205        2.8892188984       -0.0231302122
 N         -0.1476716109        1.8952284423       -1.0872862957
 H         -0.7135688608        2.4236097880       -1.7254436033
 H          0.7283225023        1.5022029239       -1.4220209214
 C         -2.7389422428       -0.4037228257        0.6717184954
 O         -2.3787885402       -1.0900273295       -0.2823236220
 N         -2.0771903117       -0.3713179641        1.8478746996
 H         -1.1479651815       -0.7554195901        1.8780285727
 H         -2.2667553078        0.3895864285        2.4933269258
 N         -3.8370952114        0.3953162752        0.6068483097
 H         -4.1783173055        0.8245585236        1.4499637490
 H         -4.5011700707        0.2204691853       -0.1275267067
 C         -1.3599872972        2.2335334314        4.1020276326
 O         -2.2834739583        2.0530721397        3.3014338096
 N         -0.0817281033        1.9740687548        3.7763135772
 H          0.1429628052        1.7310255182        2.8091999094
 H          0.6689731571        2.1994368424        4.4027401163
 N         -1.6012702569        2.6837183071        5.3525107347
 H         -0.8755622856        2.7950298963        6.0360593761
 H         -2.5541047041        2.8358246255        5.6309042881
