  53

 O          1.3507096535       -2.6571357581       -0.5438488962
 C          0.0603481751       -2.4537766386       -1.0354225328
 H          0.0575849091       -2.8113254896       -2.0677288300
 H         -0.6718198906       -3.0524071381       -0.4754115613
 C         -0.4301370918       -0.9997771917       -0.9513476083
 H         -0.4691539528       -0.7090711927        0.0988501613
 H         -1.4305414993       -0.9603493123       -1.3858399292
 N          0.3950360797        0.0159717230       -1.6625066372
 C          1.6597742499        0.2564943280       -0.9493257533
 H          1.4713655552        0.6622695660        0.0443159591
 H          2.2656967282        0.9676481415       -1.5075509627
 H          2.2034546989       -0.6809308932       -0.8487389130
 C         -0.3883616655        1.2633106616       -1.7214005106
 H         -0.7144314948        1.5598607490       -0.7239353807
 H         -1.2653696125        1.0939008459       -2.3443550678
 H          0.2155552899        2.0600959907       -2.1496989135
 C          0.6819168055       -0.4185998498       -3.0386764773
 H          1.3449275207       -1.2799286633       -3.0296926267
 H          1.1651143808        0.3897004782       -3.5840274661
 H         -0.2578122791       -0.6697398760       -3.5292172464
 H          1.3476530301       -2.4441362977        0.4158608486
 C          2.3935239838       -1.7821249989        2.6418792671
 O          1.3364960052       -1.8047794034        2.0108155955
 N          3.0747985560       -0.6434825488        2.8601523316
 H          2.7048534908        0.2346972205        2.5165752103
 H          3.9074857402       -0.6314841645        3.4194765998
 N          2.9269033993       -2.9148932240        3.1594395510
 H          3.8220270997       -2.9296953089        3.6120705825
 H          2.4818298496       -3.7917440691        2.9557562214
 C          1.7419135158        3.0218746108        1.8642057816
 O          1.9019077444        1.7955748880        1.8541496816
 N          2.7548624952        3.8516585184        2.2052360104
 H          3.6486666721        3.4603867878        2.4408999797
 H          2.6524344925        4.8495447685        2.2068354793
 N          0.5813162070        3.5853613319        1.5014171837
 H          0.4293182999        4.5713021709        1.6131622514
 H         -0.2380935034        2.9830567049        1.3641935487
 C         -3.4498820493       -0.7363202452       -3.9865360874
 O         -2.4212453883       -0.5204772990       -3.3600812131
 N         -3.9252006587       -1.9899933512       -4.1832562608
 H         -3.3624298681       -2.7682449353       -3.8901581963
 H         -4.7056643979       -2.1735873313       -4.7867029479
 N         -4.1899237009        0.2609253610       -4.5262184912
 H         -5.0774528601        0.0907055495       -4.9621813281
 H         -3.9329780055        1.2118276629       -4.3315320022
 C         -1.5319600617        0.7882479703        1.8866700981
 O         -1.5300017980        1.7978171035        1.1793371191
 N         -0.4472017755        0.3900878043        2.5730416512
 H          0.4342877718        0.8607172595        2.3697620252
 H         -0.3699980131       -0.5494880944        2.9241097140
 N         -2.6360831738       -0.0047361056        1.9745089861
 H         -2.6990780925       -0.6913601075        2.7058787529
 H         -3.5014352178        0.3870026900        1.6432023278
