  53

 O          1.0335026302       -0.0780175522        2.1384389158
 C          1.8031607671       -1.1074456755        1.5841969204
 H          2.7004927738       -0.6945712534        1.0995272702
 H          2.1400841375       -1.7284499300        2.4182822399
 C          1.0827407559       -1.9245520207        0.5098266396
 H          1.7887443107       -2.6304642392        0.0660117421
 H          0.7321226017       -1.2465003492       -0.2719151842
 N         -0.0913037759       -2.7276178575        0.9540997313
 C         -0.6522040545       -3.3855110956       -0.2396683304
 H         -1.5523269607       -3.9359266024        0.0238136831
 H          0.0951575941       -4.0696249127       -0.6408007160
 H         -0.8790839796       -2.6428433249       -1.0014844666
 C         -1.1193880547       -1.8701538959        1.5617432393
 H         -0.7367927639       -1.4120955295        2.4716781857
 H         -2.0041194808       -2.4592283989        1.7963777942
 H         -1.3859678922       -1.0764622469        0.8651253901
 C          0.3319489007       -3.7716236892        1.8992227870
 H          0.7107368187       -3.3260585986        2.8156527700
 H          1.1127515913       -4.3712042874        1.4328407430
 H         -0.5127976997       -4.4122085689        2.1456364826
 H          0.5941706560        0.4011272222        1.3954757983
 C          2.5920625443       -4.4595468548       -1.9185816298
 O          2.1369235137       -4.4881607858       -0.7801488738
 N          3.6117110823       -5.2737888932       -2.2937901162
 H          3.9015304516       -5.9875167043       -1.6489735135
 H          3.8948606073       -5.3640482375       -3.2523795356
 N          2.1213521349       -3.6234017921       -2.8698267079
 H          2.5927463104       -3.5499127469       -3.7530197479
 H          1.4459654125       -2.9019018803       -2.6320838455
 C         -2.5193678399        6.1065120700        2.3601866701
 O         -2.1957878639        5.0416253881        1.8494640566
 N         -1.8021170568        6.6746748942        3.3588134103
 H         -0.9190330392        6.2665819933        3.6087978930
 H         -2.0067724402        7.5962321011        3.6995081456
 N         -3.6171611295        6.7916713565        1.9619286869
 H         -3.9440007266        7.6025718053        2.4547397302
 H         -4.2421678409        6.3540031634        1.3087088456
 C          0.2353836481       -0.3915601676       -3.1107795087
 O          0.2712378289       -1.4217074010       -2.4443973471
 N         -0.1315635344        0.7939352036       -2.5862215902
 H         -0.2272643610        0.8726874231       -1.5712244189
 H          0.0075084557        1.6399177058       -3.1096492532
 N          0.5709176944       -0.3882935104       -4.4308002251
 H          0.3762602156        0.4083317642       -5.0108176637
 H          0.6581864243       -1.2773815311       -4.8912955023
 C         -0.8841527830        2.1961425921        0.6261472727
 O         -0.4173607092        1.1266584043        0.1953137575
 N         -1.6682864183        2.9893436173       -0.1255950034
 H         -1.9816985443        2.6797120139       -1.0271268569
 H         -2.0630879262        3.8178308491        0.2950150377
 N         -0.6294098509        2.6447387068        1.8623898239
 H         -1.0532938588        3.5138008578        2.1586624605
 H         -0.0311990566        2.1219353655        2.4777890777
