  53

 O          1.8328102175       -0.8798951438       -0.6244058340
 C          1.8059213409        0.3099025530        0.1264090427
 H          1.9976203657        0.0463075229        1.1754177531
 H          2.6389264457        0.9505374944       -0.2004622572
 C          0.4770489430        1.0437270998       -0.0131149167
 H          0.4261923856        1.5220599577       -0.9938274080
 H          0.4072149917        1.8458697072        0.7258018107
 N         -0.7580814498        0.1429212358        0.1149226872
 C         -0.8957004109       -0.7390970977       -1.1121364449
 H         -0.9987225391       -0.1330860216       -2.0090548792
 H         -1.7695998208       -1.3805421956       -1.0263281844
 H         -0.0158463509       -1.3678503117       -1.2252817695
 C         -1.9929941422        1.0248149342        0.2178251477
 H         -2.0768165071        1.6670881433       -0.6557394555
 H         -1.9418123772        1.6536506525        1.1034778958
 H         -2.8919008366        0.4163414595        0.2827089784
 C         -0.6644347503       -0.7266729993        1.3525697871
 H         -0.5242680282       -0.1137875269        2.2396173270
 H          0.1718368869       -1.4162875671        1.2666561240
 H         -1.5737348119       -1.3098020402        1.4779444181
 H          2.7281853542       -1.2754231842       -0.6572964314
 C          1.7568976399        1.5579014943        3.6162453035
 O          1.2224500125        0.7481205208        2.8766925931
 N          2.0410491383        1.2408069874        4.9141555622
 H          1.8522732038        0.3252314904        5.2765508864
 H          2.5353917503        1.8648432173        5.5240384389
 N          2.0942403614        2.8043457549        3.1692885983
 H          2.4781595779        3.5090733999        3.7711351397
 H          1.8846654673        3.0924341158        2.2216428092
 C         -4.2390975954       -2.5049987845        0.4004497151
 O         -3.3280109498       -1.6956555683        0.3260935365
 N         -5.3229394922       -2.2702834993        1.2020670999
 H         -5.3898932478       -1.4370882855        1.7557248012
 H         -6.0882297000       -2.9149754956        1.2864713051
 N         -4.2040011226       -3.6720291930       -0.3135408496
 H         -4.9317380152       -4.3619145757       -0.2627699067
 H         -3.4213657858       -3.9057531317       -0.8951186970
 C         -1.4503420677        2.2121150416       -3.4035867628
 O         -0.8817508026        2.4073400594       -2.3409146627
 N         -2.6370919229        2.8322899631       -3.6853290507
 H         -3.0393315782        3.4942979887       -3.0486282426
 H         -3.1149206855        2.7225732032       -4.5617668708
 N         -0.9152019836        1.3689504620       -4.3407083049
 H         -1.3083174000        1.2649941721       -5.2587618090
 H         -0.0022339260        0.9724359250       -4.2187790047
 C          2.0358043853        4.0697154892       -0.5097239236
 O          1.4959621449        3.5584882823        0.4580451875
 N          3.1939725855        4.7814143018       -0.3675087528
 H          3.6136734248        4.9243239006        0.5319515615
 H          3.6681816856        5.2036961904       -1.1448152283
 N          1.5199992444        3.9379487950       -1.7697364651
 H          1.9158014620        4.4062550629       -2.5636271377
 H          0.6543412085        3.4444295254       -1.9445841156
