 xtb: 6.6.1 (unknown-commit)
          01102415403D

 53 48  0     0  0            999 V2000
   -0.5975    0.6773   -2.8689 O   0  0  0  0  0  0  0  0  0  0  0  0
    0.7081    0.5715   -2.3734 C   0  0  0  0  0  0  0  0  0  0  0  0
    1.3018    0.1500   -3.1875 H   0  0  0  0  0  0  0  0  0  0  0  0
    1.1253    1.5610   -2.1436 H   0  0  0  0  0  0  0  0  0  0  0  0
    0.8570   -0.2624   -1.0937 C   0  0  0  0  0  0  0  0  0  0  0  0
    0.2721    0.1864   -0.2935 H   0  0  0  0  0  0  0  0  0  0  0  0
    1.9103   -0.2565   -0.8010 H   0  0  0  0  0  0  0  0  0  0  0  0
    0.4435   -1.6899   -1.1761 N   0  0  0  0  0  0  0  0  0  0  0  0
   -0.9966   -1.8036   -1.4595 C   0  0  0  0  0  0  0  0  0  0  0  0
   -1.5609   -1.2613   -0.7018 H   0  0  0  0  0  0  0  0  0  0  0  0
   -1.2949   -2.8499   -1.4505 H   0  0  0  0  0  0  0  0  0  0  0  0
   -1.2217   -1.3691   -2.4317 H   0  0  0  0  0  0  0  0  0  0  0  0
    0.7300   -2.2989    0.1349 C   0  0  0  0  0  0  0  0  0  0  0  0
    0.1709   -1.7828    0.9129 H   0  0  0  0  0  0  0  0  0  0  0  0
    1.7973   -2.2062    0.3378 H   0  0  0  0  0  0  0  0  0  0  0  0
    0.4498   -3.3500    0.1267 H   0  0  0  0  0  0  0  0  0  0  0  0
    1.2298   -2.3961   -2.1984 C   0  0  0  0  0  0  0  0  0  0  0  0
    2.2886   -2.2542   -1.9835 H   0  0  0  0  0  0  0  0  0  0  0  0
    0.9964   -2.0122   -3.1881 H   0  0  0  0  0  0  0  0  0  0  0  0
    0.9980   -3.4591   -2.1747 H   0  0  0  0  0  0  0  0  0  0  0  0
   -1.1509    1.2100   -2.2754 H   0  0  0  0  0  0  0  0  0  0  0  0
    4.5059   -0.6140    0.2297 C   0  0  0  0  0  0  0  0  0  0  0  0
    3.6034   -1.2688   -0.2845 O   0  0  0  0  0  0  0  0  0  0  0  0
    5.8017   -0.7917   -0.1278 N   0  0  0  0  0  0  0  0  0  0  0  0
    6.0246   -1.5537   -0.7430 H   0  0  0  0  0  0  0  0  0  0  0  0
    6.5554   -0.3498    0.3661 H   0  0  0  0  0  0  0  0  0  0  0  0
    4.2725    0.3164    1.1806 N   0  0  0  0  0  0  0  0  0  0  0  0
    5.0043    0.9418    1.4665 H   0  0  0  0  0  0  0  0  0  0  0  0
    3.3130    0.5862    1.3886 H   0  0  0  0  0  0  0  0  0  0  0  0
   -4.8785    0.2551   -0.7136 C   0  0  0  0  0  0  0  0  0  0  0  0
   -4.3750    1.1268   -1.4128 O   0  0  0  0  0  0  0  0  0  0  0  0
   -4.1735   -0.3978    0.2451 N   0  0  0  0  0  0  0  0  0  0  0  0
   -3.2774    0.0070    0.5111 H   0  0  0  0  0  0  0  0  0  0  0  0
   -4.6585   -0.9403    0.9377 H   0  0  0  0  0  0  0  0  0  0  0  0
   -6.1662   -0.1276   -0.8791 N   0  0  0  0  0  0  0  0  0  0  0  0
   -6.5587   -0.9162   -0.3986 H   0  0  0  0  0  0  0  0  0  0  0  0
   -6.6742    0.2615   -1.6537 H   0  0  0  0  0  0  0  0  0  0  0  0
   -1.3614    1.8919    0.2740 C   0  0  0  0  0  0  0  0  0  0  0  0
   -1.6069    0.7618    0.7362 O   0  0  0  0  0  0  0  0  0  0  0  0
   -2.0570    2.3792   -0.7700 N   0  0  0  0  0  0  0  0  0  0  0  0
   -2.9550    1.9250   -1.0203 H   0  0  0  0  0  0  0  0  0  0  0  0
   -1.9663    3.3508   -1.0146 H   0  0  0  0  0  0  0  0  0  0  0  0
   -0.3317    2.6194    0.7455 N   0  0  0  0  0  0  0  0  0  0  0  0
   -0.0974    3.5038    0.3314 H   0  0  0  0  0  0  0  0  0  0  0  0
    0.3774    2.1560    1.3117 H   0  0  0  0  0  0  0  0  0  0  0  0
    1.1488    0.2387    2.8978 C   0  0  0  0  0  0  0  0  0  0  0  0
    1.5960    0.9329    1.9814 O   0  0  0  0  0  0  0  0  0  0  0  0
    1.9299   -0.1581    3.9266 N   0  0  0  0  0  0  0  0  0  0  0  0
    2.8930    0.1251    3.9441 H   0  0  0  0  0  0  0  0  0  0  0  0
    1.5825   -0.7239    4.6786 H   0  0  0  0  0  0  0  0  0  0  0  0
   -0.1232   -0.2074    2.8898 N   0  0  0  0  0  0  0  0  0  0  0  0
   -0.5281   -0.6095    3.7162 H   0  0  0  0  0  0  0  0  0  0  0  0
   -0.7551    0.1808    2.1823 H   0  0  0  0  0  0  0  0  0  0  0  0
  1  2  1  0  0  0  0
  2  3  1  0  0  0  0
  2  4  1  0  0  0  0
  2  5  1  0  0  0  0
  5  6  1  0  0  0  0
  5  7  1  0  0  0  0
  5  8  1  0  0  0  0
  8  9  1  0  0  0  0
  9 10  1  0  0  0  0
  9 11  1  0  0  0  0
  9 12  1  0  0  0  0
  8 13  1  0  0  0  0
 13 14  1  0  0  0  0
 13 15  1  0  0  0  0
 13 16  1  0  0  0  0
  8 17  1  0  0  0  0
 17 18  1  0  0  0  0
 17 19  1  0  0  0  0
 17 20  1  0  0  0  0
  1 21  1  0  0  0  0
 22 23  2  0  0  0  0
 22 24  4  0  0  0  0
 24 25  1  0  0  0  0
 24 26  1  0  0  0  0
 22 27  4  0  0  0  0
 27 28  1  0  0  0  0
 27 29  1  0  0  0  0
 30 31  2  0  0  0  0
 30 32  4  0  0  0  0
 32 33  1  0  0  0  0
 32 34  1  0  0  0  0
 30 35  4  0  0  0  0
 35 36  1  0  0  0  0
 35 37  1  0  0  0  0
 38 39  4  0  0  0  0
 38 40  4  0  0  0  0
 40 41  1  0  0  0  0
 40 42  1  0  0  0  0
 38 43  4  0  0  0  0
 43 44  1  0  0  0  0
 43 45  1  0  0  0  0
 46 47  4  0  0  0  0
 46 48  4  0  0  0  0
 48 49  1  0  0  0  0
 48 50  1  0  0  0  0
 46 51  4  0  0  0  0
 51 52  1  0  0  0  0
 51 53  1  0  0  0  0
M  CHG  1   1   1
M  END
