 xtb: 6.6.1 (unknown-commit)
          01102418333D

 53 48  0     0  0            999 V2000
   -1.2077   -1.6969    1.3448 O   0  0  0  0  0  0  0  0  0  0  0  0
   -1.0669   -2.7389    0.4284 C   0  0  0  0  0  0  0  0  0  0  0  0
   -1.0092   -3.6648    1.0062 H   0  0  0  0  0  0  0  0  0  0  0  0
   -1.9556   -2.8069   -0.2184 H   0  0  0  0  0  0  0  0  0  0  0  0
    0.1334   -2.5741   -0.5156 C   0  0  0  0  0  0  0  0  0  0  0  0
    0.0587   -1.5822   -0.9704 H   0  0  0  0  0  0  0  0  0  0  0  0
    0.0602   -3.3317   -1.2988 H   0  0  0  0  0  0  0  0  0  0  0  0
    1.4829   -2.6737    0.0973 N   0  0  0  0  0  0  0  0  0  0  0  0
    1.6934   -1.6020    1.0867 C   0  0  0  0  0  0  0  0  0  0  0  0
    1.6325   -0.6372    0.5867 H   0  0  0  0  0  0  0  0  0  0  0  0
    2.6911   -1.7172    1.5069 H   0  0  0  0  0  0  0  0  0  0  0  0
    0.9428   -1.6588    1.8701 H   0  0  0  0  0  0  0  0  0  0  0  0
    2.4836   -2.5185   -0.9742 C   0  0  0  0  0  0  0  0  0  0  0  0
    2.3794   -1.5372   -1.4323 H   0  0  0  0  0  0  0  0  0  0  0  0
    2.3628   -3.2966   -1.7242 H   0  0  0  0  0  0  0  0  0  0  0  0
    3.4766   -2.5836   -0.5276 H   0  0  0  0  0  0  0  0  0  0  0  0
    1.7009   -3.9711    0.7537 C   0  0  0  0  0  0  0  0  0  0  0  0
    1.0523   -4.0731    1.6204 H   0  0  0  0  0  0  0  0  0  0  0  0
    2.7371   -4.0193    1.0860 H   0  0  0  0  0  0  0  0  0  0  0  0
    1.5069   -4.7862    0.0586 H   0  0  0  0  0  0  0  0  0  0  0  0
   -1.1686   -0.8509    0.8322 H   0  0  0  0  0  0  0  0  0  0  0  0
    5.4503   -1.2867    1.0120 C   0  0  0  0  0  0  0  0  0  0  0  0
    4.6967   -2.2510    1.0685 O   0  0  0  0  0  0  0  0  0  0  0  0
    6.6423   -1.2800    1.6625 N   0  0  0  0  0  0  0  0  0  0  0  0
    6.9459   -2.1379    2.0882 H   0  0  0  0  0  0  0  0  0  0  0  0
    7.3290   -0.5645    1.5079 H   0  0  0  0  0  0  0  0  0  0  0  0
    5.1551   -0.1673    0.3118 N   0  0  0  0  0  0  0  0  0  0  0  0
    5.7410    0.6437    0.3937 H   0  0  0  0  0  0  0  0  0  0  0  0
    4.2338   -0.0415   -0.0950 H   0  0  0  0  0  0  0  0  0  0  0  0
    2.2239    1.7180   -1.1746 C   0  0  0  0  0  0  0  0  0  0  0  0
    2.5833    0.5711   -0.9261 O   0  0  0  0  0  0  0  0  0  0  0  0
    3.1276    2.7001   -1.4441 N   0  0  0  0  0  0  0  0  0  0  0  0
    4.0772    2.4233   -1.6225 H   0  0  0  0  0  0  0  0  0  0  0  0
    2.8335    3.5872   -1.8120 H   0  0  0  0  0  0  0  0  0  0  0  0
    0.9269    2.0813   -1.1945 N   0  0  0  0  0  0  0  0  0  0  0  0
    0.6784    3.0534   -1.2413 H   0  0  0  0  0  0  0  0  0  0  0  0
    0.2203    1.4287   -0.8507 H   0  0  0  0  0  0  0  0  0  0  0  0
   -2.3184    0.9695   -0.2799 C   0  0  0  0  0  0  0  0  0  0  0  0
   -1.1928    0.4407   -0.2877 O   0  0  0  0  0  0  0  0  0  0  0  0
   -3.2766    0.6091    0.5845 N   0  0  0  0  0  0  0  0  0  0  0  0
   -3.0954   -0.0967    1.2772 H   0  0  0  0  0  0  0  0  0  0  0  0
   -4.1769    1.0665    0.5283 H   0  0  0  0  0  0  0  0  0  0  0  0
   -2.6494    1.9619   -1.1272 N   0  0  0  0  0  0  0  0  0  0  0  0
   -3.6015    2.2982   -1.1240 H   0  0  0  0  0  0  0  0  0  0  0  0
   -2.0391    2.1898   -1.8907 H   0  0  0  0  0  0  0  0  0  0  0  0
   -6.5217    2.7804   -0.1308 C   0  0  0  0  0  0  0  0  0  0  0  0
   -5.4080    2.2992   -0.2976 O   0  0  0  0  0  0  0  0  0  0  0  0
   -7.1466    2.7525    1.0705 N   0  0  0  0  0  0  0  0  0  0  0  0
   -6.6345    2.4289    1.8718 H   0  0  0  0  0  0  0  0  0  0  0  0
   -8.0088    3.2407    1.2303 H   0  0  0  0  0  0  0  0  0  0  0  0
   -7.2064    3.3757   -1.1357 N   0  0  0  0  0  0  0  0  0  0  0  0
   -8.1614    3.6650   -1.0279 H   0  0  0  0  0  0  0  0  0  0  0  0
   -6.8355    3.3149   -2.0673 H   0  0  0  0  0  0  0  0  0  0  0  0
  1  2  1  0  0  0  0
  2  3  1  0  0  0  0
  2  4  1  0  0  0  0
  2  5  1  0  0  0  0
  5  6  1  0  0  0  0
  5  7  1  0  0  0  0
  5  8  1  0  0  0  0
  8  9  1  0  0  0  0
  9 10  1  0  0  0  0
  9 11  1  0  0  0  0
  9 12  1  0  0  0  0
  8 13  1  0  0  0  0
 13 14  1  0  0  0  0
 13 15  1  0  0  0  0
 13 16  1  0  0  0  0
  8 17  1  0  0  0  0
 17 18  1  0  0  0  0
 17 19  1  0  0  0  0
 17 20  1  0  0  0  0
  1 21  1  0  0  0  0
 22 23  2  0  0  0  0
 22 24  1  0  0  0  0
 24 25  1  0  0  0  0
 24 26  1  0  0  0  0
 22 27  4  0  0  0  0
 27 28  1  0  0  0  0
 27 29  1  0  0  0  0
 30 31  2  0  0  0  0
 30 32  1  0  0  0  0
 32 33  1  0  0  0  0
 32 34  1  0  0  0  0
 30 35  4  0  0  0  0
 35 36  1  0  0  0  0
 35 37  1  0  0  0  0
 38 39  4  0  0  0  0
 38 40  4  0  0  0  0
 40 41  1  0  0  0  0
 40 42  1  0  0  0  0
 38 43  4  0  0  0  0
 43 44  1  0  0  0  0
 43 45  1  0  0  0  0
 46 47  2  0  0  0  0
 46 48  4  0  0  0  0
 48 49  1  0  0  0  0
 48 50  1  0  0  0  0
 46 51  4  0  0  0  0
 51 52  1  0  0  0  0
 51 53  1  0  0  0  0
M  CHG  1   1   1
M  END
