  53

 O          2.2263257897       -2.8894805905        1.9512771727
 C          2.9622690557       -1.7101589123        2.0655101844
 H          2.9643558060       -1.4409507367        3.1245350692
 H          4.0059454857       -1.8710476756        1.7604703160
 C          2.4368802971       -0.5652576409        1.1829263376
 H          2.4144353346       -0.9340675629        0.1535269913
 H          3.1364394967        0.2689560162        1.2574711921
 N          1.0743971361       -0.0595814200        1.5055789880
 C          0.0597040392       -1.0692354564        1.1589787657
 H          0.0812297806       -1.2412005545        0.0842043469
 H         -0.9228941901       -0.7002869913        1.4434114091
 H          0.2784960663       -2.0005729229        1.6776162588
 C          0.8198133244        1.1396345086        0.6904439633
 H          0.8305982376        0.8687751451       -0.3641649773
 H          1.5723713827        1.9005083615        0.8851675163
 H         -0.1618466847        1.5404428159        0.9335807833
 C          0.9459783628        0.2910813459        2.9289989551
 H          1.7661265570        0.9409409120        3.2287219680
 H          0.9558408631       -0.6081554638        3.5393123266
 H          0.0013433270        0.8144371185        3.0852558486
 H          2.2627592484       -3.1568770762        1.0108644873
 C          1.8837056108       -3.5018922670       -1.7628300228
 O          2.2927766250       -2.9239331995       -0.7618822524
 N          1.1811622755       -2.8553244863       -2.7193638901
 H          0.8317665837       -1.9233888180       -2.4870468011
 H          0.7009473357       -3.3767765419       -3.4311848876
 N          2.1173816960       -4.8231055666       -1.9689353575
 H          1.9196326851       -5.2622667070       -2.8497839109
 H          2.7572183293       -5.2898034785       -1.3500490984
 C         -1.8155499537        3.2306813741        2.5874303645
 O         -1.6670174279        2.0086536800        2.6891443465
 N         -1.7868913024        4.0309127732        3.6778765587
 H         -1.7622381714        3.6001788183        4.5850652711
 H         -2.0007436801        5.0099319360        3.6236617388
 N         -1.9593001738        3.8257853824        1.3928554173
 H         -2.1135445397        4.8133507913        1.3087867039
 H         -1.9904555251        3.2464844362        0.5533564657
 C          0.1986804869        0.5362116096       -3.0719687771
 O          0.2593604898       -0.2485617844       -2.1245268193
 N          0.8222940373        0.2714377896       -4.2498249872
 H          1.4625664072       -0.5026783837       -4.2855631603
 H          0.8880000479        0.9641159715       -4.9735612949
 N         -0.5020522901        1.6793311504       -3.0045722910
 H         -0.5557291388        2.3088881158       -3.7840304948
 H         -1.0499745486        1.8803794051       -2.1670036237
 C         -2.8202519003        0.9825625633       -0.4899528978
 O         -2.1009927092        1.9595875261       -0.7217154348
 N         -2.9801070074        0.5007407019        0.7552708405
 H         -2.5823814712        1.0368210418        1.5323548338
 H         -3.6889845233       -0.1810878560        0.9570000146
 N         -3.4665444267        0.3347148073       -1.4850325696
 H         -3.9846427438       -0.5086206742       -1.3208407052
 H         -3.2946265483        0.6112692451       -2.4348293441
