  53

 O         -1.6757267087       -3.7307038159       -0.6473126064
 C         -1.8034681139       -3.4438640491       -2.0049303539
 H         -1.3915028813       -4.3026344678       -2.5415450114
 H         -2.8618830311       -3.3527461071       -2.2918645048
 C         -1.1316079895       -2.1326981211       -2.4482785514
 H         -1.5688260661       -1.3059908194       -1.8829844117
 H         -1.3466588546       -1.9838621476       -3.5083383895
 N          0.3407046342       -2.0445081558       -2.2581292018
 C          0.6794286637       -2.0800068811       -0.8246497368
 H          0.1444238651       -1.2863611782       -0.3085368188
 H          1.7509384398       -1.9130078908       -0.7130942189
 H          0.3903138160       -3.0370235111       -0.3968977801
 C          0.7897145767       -0.7549741546       -2.8181523481
 H          0.1756512474        0.0504133258       -2.4133650836
 H          0.6986271558       -0.7622891603       -3.9018612058
 H          1.8278074760       -0.5799518127       -2.5342468148
 C          1.0528342422       -3.1349086670       -2.9401269060
 H          0.7644819774       -3.1783155950       -3.9891398199
 H          0.8291213595       -4.0877996627       -2.4659738776
 H          2.1244772569       -2.9551161924       -2.8722998637
 H         -2.0914794502       -3.0110948866       -0.1279860371
 C          3.0377918968        0.5112563394       -0.0771224665
 O          3.1652899688       -0.3754645611       -0.9096564713
 N          2.7034318690        0.2732501162        1.2126449950
 H          2.4334559169       -0.6605267686        1.4657984031
 H          2.4014095190        1.0361525231        1.8046487573
 N          3.1890331088        1.8293522532       -0.3923084463
 H          3.2530408850        2.5042929142        0.3498265692
 H          3.6627711743        2.0432227049       -1.2531234749
 C         -0.6526591160        1.3151168536       -0.0382691562
 O         -1.1458582069        1.0305595948       -1.1353567552
 N          0.0540830947        2.4444822664        0.1602297542
 H          0.3049027583        2.9810332267       -0.6517530343
 H          0.6026718785        2.5676525489        1.0025253121
 N         -0.7811219716        0.4852125052        1.0227580072
 H         -0.4943783597        0.7992940278        1.9329031435
 H         -1.4859447900       -0.2491315106        0.9621022532
 C         -3.8082775395       -0.9828607562       -0.1096882804
 O         -2.7827928805       -1.4540425512        0.3938908041
 N         -3.7606702053        0.0733715492       -0.9370663347
 H         -2.8562348685        0.5237179244       -1.0960983412
 H         -4.5918834852        0.5028275127       -1.2990056499
 N         -5.0165754170       -1.5500385485        0.1067847632
 H         -5.8688295844       -1.1391362806       -0.2274045759
 H         -5.0771610375       -2.3102243358        0.7610083871
 C          1.9054939704        3.3408661057        3.5037072599
 O          1.6833244701        2.6121740019        2.5381411912
 N          2.8968893528        3.0780021373        4.3804088218
 H          3.4463345097        2.2452635137        4.2631240910
 H          3.0635096540        3.6482895788        5.1890106253
 N          1.1750153790        4.4504849499        3.7401746318
 H          1.3620972253        5.0625217456        4.5128955431
 H          0.4419730975        4.6986577621        3.1000244967
