 xtb: 6.6.1 (unknown-commit)
          01102415403D

 53 48  0     0  0            999 V2000
   -1.6757   -3.7307   -0.6473 O   0  0  0  0  0  0  0  0  0  0  0  0
   -1.8035   -3.4439   -2.0049 C   0  0  0  0  0  0  0  0  0  0  0  0
   -1.3915   -4.3026   -2.5415 H   0  0  0  0  0  0  0  0  0  0  0  0
   -2.8619   -3.3527   -2.2918 H   0  0  0  0  0  0  0  0  0  0  0  0
   -1.1316   -2.1327   -2.4483 C   0  0  0  0  0  0  0  0  0  0  0  0
   -1.5688   -1.3060   -1.8830 H   0  0  0  0  0  0  0  0  0  0  0  0
   -1.3467   -1.9839   -3.5083 H   0  0  0  0  0  0  0  0  0  0  0  0
    0.3407   -2.0445   -2.2581 N   0  0  0  0  0  0  0  0  0  0  0  0
    0.6794   -2.0800   -0.8246 C   0  0  0  0  0  0  0  0  0  0  0  0
    0.1444   -1.2864   -0.3085 H   0  0  0  0  0  0  0  0  0  0  0  0
    1.7509   -1.9130   -0.7131 H   0  0  0  0  0  0  0  0  0  0  0  0
    0.3903   -3.0370   -0.3969 H   0  0  0  0  0  0  0  0  0  0  0  0
    0.7897   -0.7550   -2.8182 C   0  0  0  0  0  0  0  0  0  0  0  0
    0.1756    0.0504   -2.4134 H   0  0  0  0  0  0  0  0  0  0  0  0
    0.6986   -0.7623   -3.9019 H   0  0  0  0  0  0  0  0  0  0  0  0
    1.8278   -0.5800   -2.5343 H   0  0  0  0  0  0  0  0  0  0  0  0
    1.0528   -3.1349   -2.9401 C   0  0  0  0  0  0  0  0  0  0  0  0
    0.7645   -3.1783   -3.9891 H   0  0  0  0  0  0  0  0  0  0  0  0
    0.8291   -4.0878   -2.4660 H   0  0  0  0  0  0  0  0  0  0  0  0
    2.1245   -2.9551   -2.8723 H   0  0  0  0  0  0  0  0  0  0  0  0
   -2.0915   -3.0111   -0.1280 H   0  0  0  0  0  0  0  0  0  0  0  0
    3.0378    0.5112   -0.0771 C   0  0  0  0  0  0  0  0  0  0  0  0
    3.1653   -0.3755   -0.9097 O   0  0  0  0  0  0  0  0  0  0  0  0
    2.7034    0.2732    1.2126 N   0  0  0  0  0  0  0  0  0  0  0  0
    2.4335   -0.6605    1.4658 H   0  0  0  0  0  0  0  0  0  0  0  0
    2.4014    1.0361    1.8046 H   0  0  0  0  0  0  0  0  0  0  0  0
    3.1890    1.8293   -0.3923 N   0  0  0  0  0  0  0  0  0  0  0  0
    3.2531    2.5043    0.3498 H   0  0  0  0  0  0  0  0  0  0  0  0
    3.6628    2.0432   -1.2531 H   0  0  0  0  0  0  0  0  0  0  0  0
   -0.6527    1.3151   -0.0383 C   0  0  0  0  0  0  0  0  0  0  0  0
   -1.1459    1.0306   -1.1354 O   0  0  0  0  0  0  0  0  0  0  0  0
    0.0541    2.4445    0.1602 N   0  0  0  0  0  0  0  0  0  0  0  0
    0.3049    2.9810   -0.6518 H   0  0  0  0  0  0  0  0  0  0  0  0
    0.6027    2.5677    1.0025 H   0  0  0  0  0  0  0  0  0  0  0  0
   -0.7811    0.4852    1.0228 N   0  0  0  0  0  0  0  0  0  0  0  0
   -0.4944    0.7993    1.9329 H   0  0  0  0  0  0  0  0  0  0  0  0
   -1.4859   -0.2491    0.9621 H   0  0  0  0  0  0  0  0  0  0  0  0
   -3.8083   -0.9828   -0.1097 C   0  0  0  0  0  0  0  0  0  0  0  0
   -2.7828   -1.4540    0.3939 O   0  0  0  0  0  0  0  0  0  0  0  0
   -3.7607    0.0734   -0.9371 N   0  0  0  0  0  0  0  0  0  0  0  0
   -2.8562    0.5237   -1.0961 H   0  0  0  0  0  0  0  0  0  0  0  0
   -4.5919    0.5028   -1.2990 H   0  0  0  0  0  0  0  0  0  0  0  0
   -5.0166   -1.5500    0.1068 N   0  0  0  0  0  0  0  0  0  0  0  0
   -5.8688   -1.1391   -0.2274 H   0  0  0  0  0  0  0  0  0  0  0  0
   -5.0772   -2.3102    0.7610 H   0  0  0  0  0  0  0  0  0  0  0  0
    1.9055    3.3409    3.5037 C   0  0  0  0  0  0  0  0  0  0  0  0
    1.6833    2.6122    2.5381 O   0  0  0  0  0  0  0  0  0  0  0  0
    2.8969    3.0780    4.3804 N   0  0  0  0  0  0  0  0  0  0  0  0
    3.4464    2.2453    4.2631 H   0  0  0  0  0  0  0  0  0  0  0  0
    3.0635    3.6483    5.1890 H   0  0  0  0  0  0  0  0  0  0  0  0
    1.1751    4.4505    3.7402 N   0  0  0  0  0  0  0  0  0  0  0  0
    1.3621    5.0625    4.5129 H   0  0  0  0  0  0  0  0  0  0  0  0
    0.4420    4.6987    3.1000 H   0  0  0  0  0  0  0  0  0  0  0  0
  1  2  1  0  0  0  0
  2  3  1  0  0  0  0
  2  4  1  0  0  0  0
  2  5  1  0  0  0  0
  5  6  1  0  0  0  0
  5  7  1  0  0  0  0
  5  8  1  0  0  0  0
  8  9  1  0  0  0  0
  9 10  1  0  0  0  0
  9 11  1  0  0  0  0
  9 12  1  0  0  0  0
  8 13  1  0  0  0  0
 13 14  1  0  0  0  0
 13 15  1  0  0  0  0
 13 16  1  0  0  0  0
  8 17  1  0  0  0  0
 17 18  1  0  0  0  0
 17 19  1  0  0  0  0
 17 20  1  0  0  0  0
  1 21  1  0  0  0  0
 22 23  2  0  0  0  0
 22 24  4  0  0  0  0
 24 25  1  0  0  0  0
 24 26  1  0  0  0  0
 22 27  1  0  0  0  0
 27 28  1  0  0  0  0
 27 29  1  0  0  0  0
 30 31  4  0  0  0  0
 30 32  4  0  0  0  0
 32 33  1  0  0  0  0
 32 34  1  0  0  0  0
 30 35  4  0  0  0  0
 35 36  1  0  0  0  0
 35 37  1  0  0  0  0
 38 39  4  0  0  0  0
 38 40  4  0  0  0  0
 40 41  1  0  0  0  0
 40 42  1  0  0  0  0
 38 43  4  0  0  0  0
 43 44  1  0  0  0  0
 43 45  1  0  0  0  0
 46 47  4  0  0  0  0
 46 48  4  0  0  0  0
 48 49  1  0  0  0  0
 48 50  1  0  0  0  0
 46 51  4  0  0  0  0
 51 52  1  0  0  0  0
 51 53  1  0  0  0  0
M  CHG  1   1   1
M  END
