 xtb: 6.6.1 (unknown-commit)
          01102415343D

 53 48  0     0  0            999 V2000
    1.9829   -1.0989    1.6128 O   0  0  0  0  0  0  0  0  0  0  0  0
    1.9015   -2.4532    1.2863 C   0  0  0  0  0  0  0  0  0  0  0  0
    2.8798   -2.9414    1.4084 H   0  0  0  0  0  0  0  0  0  0  0  0
    1.2119   -2.9108    2.0006 H   0  0  0  0  0  0  0  0  0  0  0  0
    1.4767   -2.7197   -0.1662 C   0  0  0  0  0  0  0  0  0  0  0  0
    1.4909   -3.7995   -0.3271 H   0  0  0  0  0  0  0  0  0  0  0  0
    2.2184   -2.2452   -0.8130 H   0  0  0  0  0  0  0  0  0  0  0  0
    0.1387   -2.2043   -0.5652 N   0  0  0  0  0  0  0  0  0  0  0  0
   -0.9082   -2.5898    0.3943 C   0  0  0  0  0  0  0  0  0  0  0  0
   -1.8677   -2.2635   -0.0087 H   0  0  0  0  0  0  0  0  0  0  0  0
   -0.7476   -2.0957    1.3492 H   0  0  0  0  0  0  0  0  0  0  0  0
   -0.9139   -3.6690    0.5331 H   0  0  0  0  0  0  0  0  0  0  0  0
   -0.2113   -2.7614   -1.8834 C   0  0  0  0  0  0  0  0  0  0  0  0
   -0.2867   -3.8459   -1.8311 H   0  0  0  0  0  0  0  0  0  0  0  0
    0.5475   -2.4924   -2.6151 H   0  0  0  0  0  0  0  0  0  0  0  0
   -1.1726   -2.3491   -2.1890 H   0  0  0  0  0  0  0  0  0  0  0  0
    0.1516   -0.7357   -0.6840 C   0  0  0  0  0  0  0  0  0  0  0  0
    0.9182   -0.4234   -1.3888 H   0  0  0  0  0  0  0  0  0  0  0  0
    0.3752   -0.2868    0.2785 H   0  0  0  0  0  0  0  0  0  0  0  0
   -0.8296   -0.4073   -1.0231 H   0  0  0  0  0  0  0  0  0  0  0  0
    2.5435   -0.6718    0.9264 H   0  0  0  0  0  0  0  0  0  0  0  0
    4.0263    0.7397   -0.6888 C   0  0  0  0  0  0  0  0  0  0  0  0
    3.3472   -0.2812   -0.5744 O   0  0  0  0  0  0  0  0  0  0  0  0
    3.4980    1.9720   -0.5900 N   0  0  0  0  0  0  0  0  0  0  0  0
    2.5234    2.0832   -0.3121 H   0  0  0  0  0  0  0  0  0  0  0  0
    4.0927    2.7804   -0.5618 H   0  0  0  0  0  0  0  0  0  0  0  0
    5.3567    0.6696   -0.9375 N   0  0  0  0  0  0  0  0  0  0  0  0
    5.9134    1.4854   -1.1142 H   0  0  0  0  0  0  0  0  0  0  0  0
    5.7707   -0.2319   -1.0920 H   0  0  0  0  0  0  0  0  0  0  0  0
   -1.0938    0.4742    2.4297 C   0  0  0  0  0  0  0  0  0  0  0  0
   -2.0047    0.8504    1.6878 O   0  0  0  0  0  0  0  0  0  0  0  0
   -1.2882   -0.5657    3.2990 N   0  0  0  0  0  0  0  0  0  0  0  0
   -2.2459   -0.7956    3.5108 H   0  0  0  0  0  0  0  0  0  0  0  0
   -0.6328   -0.6889    4.0530 H   0  0  0  0  0  0  0  0  0  0  0  0
    0.1328    1.0094    2.4035 N   0  0  0  0  0  0  0  0  0  0  0  0
    0.8952    0.5505    2.8728 H   0  0  0  0  0  0  0  0  0  0  0  0
    0.3801    1.6295    1.6278 H   0  0  0  0  0  0  0  0  0  0  0  0
   -3.9437   -0.6105   -1.1565 C   0  0  0  0  0  0  0  0  0  0  0  0
   -2.8607   -1.1164   -1.4356 O   0  0  0  0  0  0  0  0  0  0  0  0
   -4.9853   -0.6399   -2.0283 N   0  0  0  0  0  0  0  0  0  0  0  0
   -4.8932   -1.2055   -2.8536 H   0  0  0  0  0  0  0  0  0  0  0  0
   -5.9114   -0.3704   -1.7496 H   0  0  0  0  0  0  0  0  0  0  0  0
   -4.1746   -0.0017    0.0246 N   0  0  0  0  0  0  0  0  0  0  0  0
   -5.0305    0.4997    0.1805 H   0  0  0  0  0  0  0  0  0  0  0  0
   -3.3960    0.2089    0.6408 H   0  0  0  0  0  0  0  0  0  0  0  0
   -0.1188    2.9017   -0.6060 C   0  0  0  0  0  0  0  0  0  0  0  0
    0.7873    2.4066    0.0715 O   0  0  0  0  0  0  0  0  0  0  0  0
   -1.4091    2.6408   -0.3651 N   0  0  0  0  0  0  0  0  0  0  0  0
   -1.6623    2.0260    0.4138 H   0  0  0  0  0  0  0  0  0  0  0  0
   -2.1383    3.0675   -0.9057 H   0  0  0  0  0  0  0  0  0  0  0  0
    0.1610    3.7044   -1.6634 N   0  0  0  0  0  0  0  0  0  0  0  0
   -0.5601    4.2075   -2.1474 H   0  0  0  0  0  0  0  0  0  0  0  0
    1.1125    3.9903   -1.8097 H   0  0  0  0  0  0  0  0  0  0  0  0
  1  2  1  0  0  0  0
  2  3  1  0  0  0  0
  2  4  1  0  0  0  0
  2  5  1  0  0  0  0
  5  6  1  0  0  0  0
  5  7  1  0  0  0  0
  5  8  1  0  0  0  0
  8  9  1  0  0  0  0
  9 10  1  0  0  0  0
  9 11  1  0  0  0  0
  9 12  1  0  0  0  0
  8 13  1  0  0  0  0
 13 14  1  0  0  0  0
 13 15  1  0  0  0  0
 13 16  1  0  0  0  0
  8 17  1  0  0  0  0
 17 18  1  0  0  0  0
 17 19  1  0  0  0  0
 17 20  1  0  0  0  0
  1 21  1  0  0  0  0
 22 23  4  0  0  0  0
 22 24  4  0  0  0  0
 24 25  1  0  0  0  0
 24 26  1  0  0  0  0
 22 27  4  0  0  0  0
 27 28  1  0  0  0  0
 27 29  1  0  0  0  0
 30 31  4  0  0  0  0
 30 32  1  0  0  0  0
 32 33  1  0  0  0  0
 32 34  1  0  0  0  0
 30 35  4  0  0  0  0
 35 36  1  0  0  0  0
 35 37  1  0  0  0  0
 38 39  2  0  0  0  0
 38 40  1  0  0  0  0
 40 41  1  0  0  0  0
 40 42  1  0  0  0  0
 38 43  4  0  0  0  0
 43 44  1  0  0  0  0
 43 45  1  0  0  0  0
 46 47  4  0  0  0  0
 46 48  4  0  0  0  0
 48 49  1  0  0  0  0
 48 50  1  0  0  0  0
 46 51  4  0  0  0  0
 51 52  1  0  0  0  0
 51 53  1  0  0  0  0
M  CHG  1   1   1
M  END
