 xtb: 6.6.1 (unknown-commit)
          01102417193D

 53 48  0     0  0            999 V2000
   -0.2555   -0.3827   -3.5352 o   0  0  0  0  0  0  0  0  0  0  0  0
    0.6207   -0.8232   -2.5182 c   0  0  0  0  0  0  0  0  0  0  0  0
    0.5044   -1.9040   -2.3586 h   0  0  0  0  0  0  0  0  0  0  0  0
    1.6651   -0.6376   -2.7986 h   0  0  0  0  0  0  0  0  0  0  0  0
    0.3886   -0.0626   -1.2141 c   0  0  0  0  0  0  0  0  0  0  0  0
    0.6388    0.9920   -1.3431 h   0  0  0  0  0  0  0  0  0  0  0  0
    1.0654   -0.4910   -0.4747 h   0  0  0  0  0  0  0  0  0  0  0  0
   -0.9879   -0.1086   -0.6616 n   0  0  0  0  0  0  0  0  0  0  0  0
   -1.8687    0.8148   -1.3953 c   0  0  0  0  0  0  0  0  0  0  0  0
   -1.4891    1.8279   -1.2772 h   0  0  0  0  0  0  0  0  0  0  0  0
   -2.8698    0.7437   -0.9736 h   0  0  0  0  0  0  0  0  0  0  0  0
   -1.8801    0.5544   -2.4499 h   0  0  0  0  0  0  0  0  0  0  0  0
   -0.9358    0.3421    0.7390 c   0  0  0  0  0  0  0  0  0  0  0  0
   -0.4612    1.3215    0.7765 h   0  0  0  0  0  0  0  0  0  0  0  0
   -0.3637   -0.3680    1.3309 h   0  0  0  0  0  0  0  0  0  0  0  0
   -1.9535    0.4027    1.1202 h   0  0  0  0  0  0  0  0  0  0  0  0
   -1.5461   -1.4674   -0.6956 c   0  0  0  0  0  0  0  0  0  0  0  0
   -0.8514   -2.1555   -0.2147 h   0  0  0  0  0  0  0  0  0  0  0  0
   -1.7215   -1.7717   -1.7241 h   0  0  0  0  0  0  0  0  0  0  0  0
   -2.4954   -1.4623   -0.1628 h   0  0  0  0  0  0  0  0  0  0  0  0
    0.0565   -0.6955   -4.3895 h   0  0  0  0  0  0  0  0  0  0  0  0
    2.2299   -3.1017   -0.1358 c   0  0  0  0  0  0  0  0  0  0  0  0
    1.2486   -2.7126    0.4999 o   0  0  0  0  0  0  0  0  0  0  0  0
    2.2764   -4.3538   -0.6589 n   0  0  0  0  0  0  0  0  0  0  0  0
    1.5709   -5.0068   -0.3646 h   0  0  0  0  0  0  0  0  0  0  0  0
    3.1281   -4.7301   -1.0348 h   0  0  0  0  0  0  0  0  0  0  0  0
    3.2710   -2.2946   -0.4004 n   0  0  0  0  0  0  0  0  0  0  0  0
    4.0837   -2.6224   -0.8885 h   0  0  0  0  0  0  0  0  0  0  0  0
    3.2603   -1.3395   -0.0398 h   0  0  0  0  0  0  0  0  0  0  0  0
   -5.2784   -0.1613    0.9865 c   0  0  0  0  0  0  0  0  0  0  0  0
   -4.1050   -0.1674    0.6464 o   0  0  0  0  0  0  0  0  0  0  0  0
   -5.6600   -0.3348    2.2760 n   0  0  0  0  0  0  0  0  0  0  0  0
   -4.9590   -0.5832    2.9509 h   0  0  0  0  0  0  0  0  0  0  0  0
   -6.6231   -0.4491    2.5335 h   0  0  0  0  0  0  0  0  0  0  0  0
   -6.2888    0.0174    0.0992 n   0  0  0  0  0  0  0  0  0  0  0  0
   -7.2388    0.1429    0.3969 h   0  0  0  0  0  0  0  0  0  0  0  0
   -6.0570    0.2629   -0.8466 h   0  0  0  0  0  0  0  0  0  0  0  0
    2.5974    0.2297    1.9362 c   0  0  0  0  0  0  0  0  0  0  0  0
    2.9569    0.2609    0.7547 o   0  0  0  0  0  0  0  0  0  0  0  0
    1.8591   -0.7816    2.4244 n   0  0  0  0  0  0  0  0  0  0  0  0
    1.6412   -1.5689    1.8082 h   0  0  0  0  0  0  0  0  0  0  0  0
    1.6757   -0.8672    3.4072 h   0  0  0  0  0  0  0  0  0  0  0  0
    2.9251    1.2219    2.7950 n   0  0  0  0  0  0  0  0  0  0  0  0
    2.5446    1.2637    3.7227 h   0  0  0  0  0  0  0  0  0  0  0  0
    3.3648    2.0458    2.4243 h   0  0  0  0  0  0  0  0  0  0  0  0
    1.6551    3.5146   -0.4058 c   0  0  0  0  0  0  0  0  0  0  0  0
    0.6173    2.8741   -0.3121 o   0  0  0  0  0  0  0  0  0  0  0  0
    1.6632    4.8053   -0.8332 n   0  0  0  0  0  0  0  0  0  0  0  0
    0.7774    5.2677   -0.9380 h   0  0  0  0  0  0  0  0  0  0  0  0
    2.4844    5.3781   -0.7630 h   0  0  0  0  0  0  0  0  0  0  0  0
    2.8653    2.9928   -0.0853 n   0  0  0  0  0  0  0  0  0  0  0  0
    3.7044    3.4648   -0.3731 h   0  0  0  0  0  0  0  0  0  0  0  0
    2.9263    1.9884    0.0709 h   0  0  0  0  0  0  0  0  0  0  0  0
  1  2  1  0  0  0  0
  2  3  1  0  0  0  0
  2  4  1  0  0  0  0
  2  5  1  0  0  0  0
  5  6  1  0  0  0  0
  5  7  1  0  0  0  0
  5  8  1  0  0  0  0
  8  9  1  0  0  0  0
  9 10  1  0  0  0  0
  9 11  1  0  0  0  0
  9 12  1  0  0  0  0
  8 13  1  0  0  0  0
 13 14  1  0  0  0  0
 13 15  1  0  0  0  0
 13 16  1  0  0  0  0
  8 17  1  0  0  0  0
 17 18  1  0  0  0  0
 17 19  1  0  0  0  0
 17 20  1  0  0  0  0
  1 21  1  0  0  0  0
 22 23  4  0  0  0  0
 22 24  1  0  0  0  0
 24 25  1  0  0  0  0
 24 26  1  0  0  0  0
 22 27  4  0  0  0  0
 27 28  1  0  0  0  0
 27 29  1  0  0  0  0
 30 31  2  0  0  0  0
 30 32  4  0  0  0  0
 32 33  1  0  0  0  0
 32 34  1  0  0  0  0
 30 35  4  0  0  0  0
 35 36  1  0  0  0  0
 35 37  1  0  0  0  0
 38 39  4  0  0  0  0
 38 40  4  0  0  0  0
 40 41  1  0  0  0  0
 40 42  1  0  0  0  0
 38 43  4  0  0  0  0
 43 44  1  0  0  0  0
 43 45  1  0  0  0  0
 46 47  2  0  0  0  0
 46 48  1  0  0  0  0
 48 49  1  0  0  0  0
 48 50  1  0  0  0  0
 46 51  4  0  0  0  0
 51 52  1  0  0  0  0
 51 53  1  0  0  0  0
M  CHG  1   1   1
M  END
