 xtb: 6.6.1 (unknown-commit)
          01102418303D

 53 48  0     0  0            999 V2000
    0.4480    1.4219    1.8497 O   0  0  0  0  0  0  0  0  0  0  0  0
    1.0787    0.3780    1.1569 C   0  0  0  0  0  0  0  0  0  0  0  0
    2.1506    0.5750    1.0493 H   0  0  0  0  0  0  0  0  0  0  0  0
    0.9676   -0.5159    1.7795 H   0  0  0  0  0  0  0  0  0  0  0  0
    0.4476    0.0223   -0.1946 C   0  0  0  0  0  0  0  0  0  0  0  0
   -0.6291   -0.0814   -0.0658 H   0  0  0  0  0  0  0  0  0  0  0  0
    0.8672   -0.9405   -0.5029 H   0  0  0  0  0  0  0  0  0  0  0  0
    0.6424    0.9590   -1.3374 N   0  0  0  0  0  0  0  0  0  0  0  0
   -0.1436    2.1919   -1.1625 C   0  0  0  0  0  0  0  0  0  0  0  0
   -1.1688    1.9304   -0.9029 H   0  0  0  0  0  0  0  0  0  0  0  0
   -0.1413    2.7604   -2.0908 H   0  0  0  0  0  0  0  0  0  0  0  0
    0.2895    2.8096   -0.3808 H   0  0  0  0  0  0  0  0  0  0  0  0
    0.1507    0.2548   -2.5356 C   0  0  0  0  0  0  0  0  0  0  0  0
   -0.9086    0.0408   -2.4145 H   0  0  0  0  0  0  0  0  0  0  0  0
    0.6929   -0.6831   -2.6531 H   0  0  0  0  0  0  0  0  0  0  0  0
    0.2919    0.8736   -3.4193 H   0  0  0  0  0  0  0  0  0  0  0  0
    2.0630    1.2865   -1.5202 C   0  0  0  0  0  0  0  0  0  0  0  0
    2.1992    1.8203   -2.4590 H   0  0  0  0  0  0  0  0  0  0  0  0
    2.6423    0.3654   -1.5462 H   0  0  0  0  0  0  0  0  0  0  0  0
    2.4041    1.9281   -0.7096 H   0  0  0  0  0  0  0  0  0  0  0  0
    0.8308    2.2610    1.5169 H   0  0  0  0  0  0  0  0  0  0  0  0
    1.4460   -3.5338   -1.5041 C   0  0  0  0  0  0  0  0  0  0  0  0
    1.6314   -2.3344   -1.6796 O   0  0  0  0  0  0  0  0  0  0  0  0
    0.5719   -4.0168   -0.5956 N   0  0  0  0  0  0  0  0  0  0  0  0
   -0.0868   -3.3970   -0.1360 H   0  0  0  0  0  0  0  0  0  0  0  0
    0.3570   -4.9977   -0.5770 H   0  0  0  0  0  0  0  0  0  0  0  0
    2.1229   -4.4653   -2.2268 N   0  0  0  0  0  0  0  0  0  0  0  0
    2.0947   -5.4399   -1.9878 H   0  0  0  0  0  0  0  0  0  0  0  0
    2.8804   -4.1486   -2.8059 H   0  0  0  0  0  0  0  0  0  0  0  0
    2.3169    4.2321    1.8203 C   0  0  0  0  0  0  0  0  0  0  0  0
    1.8969    3.5177    0.9103 O   0  0  0  0  0  0  0  0  0  0  0  0
    2.0604    3.9559    3.1161 N   0  0  0  0  0  0  0  0  0  0  0  0
    1.4953    3.1540    3.3403 H   0  0  0  0  0  0  0  0  0  0  0  0
    2.3811    4.5437    3.8630 H   0  0  0  0  0  0  0  0  0  0  0  0
    3.0668    5.3255    1.5740 N   0  0  0  0  0  0  0  0  0  0  0  0
    3.4061    5.9229    2.3050 H   0  0  0  0  0  0  0  0  0  0  0  0
    3.2700    5.5686    0.6211 H   0  0  0  0  0  0  0  0  0  0  0  0
   -1.5094   -1.8388    1.8439 C   0  0  0  0  0  0  0  0  0  0  0  0
   -1.4618   -2.5142    0.8127 O   0  0  0  0  0  0  0  0  0  0  0  0
   -2.1571   -0.6629    1.9092 N   0  0  0  0  0  0  0  0  0  0  0  0
   -2.4640   -0.2319    1.0376 H   0  0  0  0  0  0  0  0  0  0  0  0
   -2.0158   -0.0496    2.6922 H   0  0  0  0  0  0  0  0  0  0  0  0
   -0.8864   -2.2545    2.9779 N   0  0  0  0  0  0  0  0  0  0  0  0
   -1.0674   -1.8007    3.8556 H   0  0  0  0  0  0  0  0  0  0  0  0
   -0.5593   -3.2048    3.0084 H   0  0  0  0  0  0  0  0  0  0  0  0
   -3.4158   -0.4681   -1.3424 C   0  0  0  0  0  0  0  0  0  0  0  0
   -2.7412    0.3404   -0.6995 O   0  0  0  0  0  0  0  0  0  0  0  0
   -3.2295   -1.7915   -1.2306 N   0  0  0  0  0  0  0  0  0  0  0  0
   -2.5755   -2.1362   -0.5230 H   0  0  0  0  0  0  0  0  0  0  0  0
   -3.8183   -2.4476   -1.7095 H   0  0  0  0  0  0  0  0  0  0  0  0
   -4.3253   -0.0473   -2.2592 N   0  0  0  0  0  0  0  0  0  0  0  0
   -4.9794   -0.6858   -2.6749 H   0  0  0  0  0  0  0  0  0  0  0  0
   -4.5590    0.9301   -2.2718 H   0  0  0  0  0  0  0  0  0  0  0  0
  1  2  1  0  0  0  0
  2  3  1  0  0  0  0
  2  4  1  0  0  0  0
  2  5  1  0  0  0  0
  5  6  1  0  0  0  0
  5  7  1  0  0  0  0
  5  8  1  0  0  0  0
  8  9  1  0  0  0  0
  9 10  1  0  0  0  0
  9 11  1  0  0  0  0
  9 12  1  0  0  0  0
  8 13  1  0  0  0  0
 13 14  1  0  0  0  0
 13 15  1  0  0  0  0
 13 16  1  0  0  0  0
  8 17  1  0  0  0  0
 17 18  1  0  0  0  0
 17 19  1  0  0  0  0
 17 20  1  0  0  0  0
  1 21  1  0  0  0  0
 22 23  2  0  0  0  0
 22 24  4  0  0  0  0
 24 25  1  0  0  0  0
 24 26  1  0  0  0  0
 22 27  1  0  0  0  0
 27 28  1  0  0  0  0
 27 29  1  0  0  0  0
 30 31  4  0  0  0  0
 30 32  4  0  0  0  0
 32 33  1  0  0  0  0
 32 34  1  0  0  0  0
 30 35  4  0  0  0  0
 35 36  1  0  0  0  0
 35 37  1  0  0  0  0
 38 39  4  0  0  0  0
 38 40  4  0  0  0  0
 40 41  1  0  0  0  0
 40 42  1  0  0  0  0
 38 43  1  0  0  0  0
 43 44  1  0  0  0  0
 43 45  1  0  0  0  0
 46 47  4  0  0  0  0
 46 48  4  0  0  0  0
 48 49  1  0  0  0  0
 48 50  1  0  0  0  0
 46 51  1  0  0  0  0
 51 52  1  0  0  0  0
 51 53  1  0  0  0  0
M  CHG  1   1   1
M  END
