  53

 O          1.0344342604       -3.3775731731        2.0997071160
 C          2.1383519963       -3.7113779004        1.3182956373
 H          2.8626605857       -4.1951789187        1.9788681249
 H          1.8649564561       -4.4351791783        0.5384619808
 C          2.7543215600       -2.5101039523        0.5781017028
 H          1.9877795166       -2.1078561521       -0.0889359305
 H          3.6018825216       -2.8692346591       -0.0074356712
 N          3.2207592685       -1.3859628064        1.4405788282
 C          2.0602456496       -0.6542712096        1.9803740027
 H          1.4681007405       -0.2722158696        1.1506426023
 H          2.3995333242        0.1777115757        2.5932819359
 H          1.4490822241       -1.3307986470        2.5746602616
 C          4.0035730999       -0.4594239519        0.6037931275
 H          3.3670953681       -0.0762895717       -0.1961048939
 H          4.8672137630       -0.9663442615        0.1784342193
 H          4.3497743354        0.3786450483        1.2053380867
 C          4.0538096423       -1.8730080087        2.5507470480
 H          4.8660543998       -2.4899785119        2.1699233380
 H          3.4498694010       -2.4580069228        3.2407019961
 H          4.4777065943       -1.0284685516        3.0913596809
 H          0.3531775820       -3.0258817189        1.4889638193
 C         -1.2268260621       -1.6312032760       -0.3972548012
 O         -0.2109410712       -2.1752811943        0.0352675351
 N         -1.7421377635       -1.9444238487       -1.6117149556
 H         -1.4412523521       -2.7910487926       -2.0600341116
 H         -2.6055194858       -1.5170058790       -1.9025165588
 N         -1.9088938951       -0.6838929042        0.2782729930
 H         -2.5825567153       -0.1411988450       -0.2509741411
 H         -1.4665133810       -0.2234750092        1.0553208629
 C         -0.0931290166        2.9433802669        1.1630313138
 O         -1.0396681434        2.2572691376        0.7746070804
 N         -0.2940650807        4.0473171173        1.9216412175
 H         -1.2237721421        4.2408616359        2.2491060345
 H          0.4659303828        4.5621070271        2.3272530590
 N          1.1862521278        2.6233709498        0.8809050589
 H          1.9130949304        3.2984738680        1.0397796710
 H          1.3580836300        1.9038627689        0.1689604841
 C          0.6886729567        0.3998540838       -1.8035180650
 O          1.6000292863        0.5535696809       -0.9781080964
 N          0.8372248753       -0.4388816442       -2.8549034921
 H          1.7372196476       -0.8423574146       -3.0409181217
 H          0.1262017048       -0.5079336894       -3.5593472533
 N         -0.4681542782        1.0712594220       -1.7221925244
 H         -1.2763041184        0.7829195715       -2.2529038180
 H         -0.6827417717        1.5265488810       -0.8352129751
 C         -3.9975010188        1.6467592543       -1.5505018578
 O         -3.3614491838        0.6254859324       -1.8037072405
 N         -3.6552576462        2.4824439499       -0.5485547018
 H         -2.7872267723        2.3434213146       -0.0455846456
 H         -4.1413642195        3.3504469072       -0.4162236161
 N         -5.0885639142        1.9943961316       -2.2746155482
 H         -5.6833681638        2.7580045658       -2.0096430667
 H         -5.4335310285        1.3413853135       -2.9555418686
