53
 xtb: 6.6.1 (unknown-commit)
O            2.13385805201275        1.03329686343928       -1.04586268856822
C            1.44456553998058        2.24400859208454       -0.92496168751867
H            2.17408407534497        3.00322544214075       -0.63273054493037
H            1.01657019851856        2.55699187213565       -1.89000443887002
C            0.26988212877675        2.21404102124370        0.06796821663569
H           -0.44451862965661        1.43011265885165       -0.21628929434020
H           -0.24038596896962        3.18189202411238        0.01498658713658
N            0.61859823965122        1.95519311919641        1.49085436835457
C            1.06378078710684        0.56240573633439        1.66714397061782
H            0.25814993987169       -0.10036573715089        1.36634266019412
H            1.30189663947490        0.40920457066226        2.71786842024952
H            1.94022893826421        0.38443561557123        1.04963126329456
C           -0.59725741240660        2.14049144549831        2.30373134831594
H           -1.37050241091924        1.45496103315090        1.94538436797212
H           -0.95796546178207        3.16321648673156        2.23171038664459
H           -0.35876946321914        1.91034132330679        3.34182019649030
C            1.66495729624018        2.86161242764820        1.98510465710802
H            1.36899358249666        3.90248414857768        1.81072502213942
H            2.60145058578204        2.66416517980568        1.48788663040711
H            1.77900537020462        2.69888971009808        3.05561832547008
H            1.57908963396347        0.41255761774670       -1.57198688858148
C            1.04334412209960       -1.95111824992797       -2.08009817356335
O            0.69422086398576       -0.80402025923870       -2.40719180586053
N            2.17835164103150       -2.14767441022880       -1.37111843115325
H            2.79489914586575       -1.35517129617472       -1.22538997779169
H            2.53916236595748       -3.06129178292930       -1.19788321606058
N            0.30317139062749       -3.02076912775930       -2.37901233298727
H            0.59588025166825       -3.94140652620749       -2.11321646941986
H           -0.57220230683141       -2.90256360840053       -2.89462028740641
C            1.48942307762354        1.40780318276426        5.96438655516271
O            1.27471481594964        1.52442552047435        4.76575637194538
N            0.49889395024575        1.54081330450449        6.89172424882262
H           -0.35262519594469        2.00704427955599        6.59988628612265
H            0.73552839677091        1.62900054521924        7.88046917305632
N            2.73555391340177        1.14156700013369        6.45219846010220
H            2.85175354782871        0.84626001241578        7.42064873387440
H            3.41387911588758        0.75713436396614        5.79478145747362
C           -1.76864583038635       -1.87500965432850       -4.87835836424868
O           -1.98697938959785       -2.56387051675685       -3.88042798980578
N           -0.77868743490193       -0.96301613341230       -4.91338382774018
H           -0.22524327290015       -0.80104008365924       -4.07932008064161
H           -0.63380222026882       -0.37352573021578       -5.71294239469882
N           -2.53098818843840       -1.99022540209765       -5.98977816143985
H           -2.31893321667666       -1.50404887259719       -6.83929622801816
H           -3.21981206804576       -2.72353937122065       -6.01626646338855
C           -2.42254202145802       -0.71908041568776       -0.33909573840496
O           -1.77430661858746       -0.07332173227172        0.48147938441910
N           -3.53282424321748       -1.41328200138251        0.01410723182187
H           -3.89625271169335       -1.30320738198108        0.94300465522318
H           -4.11139973052259       -1.85278900900331       -0.67711991410834
N           -2.09408320379932       -0.75557258220178       -1.64834408917773
H           -2.48219856240455       -1.46820471425338       -2.25533616515038
H           -1.15457491921949       -0.47365624424240       -1.89585086145449
