 xtb: 6.6.1 (unknown-commit)
          01102418273D

 53 48  0     0  0            999 V2000
    2.1276    1.0437   -1.0470 O   0  0  0  0  0  0  0  0  0  0  0  0
    1.4352    2.2506   -0.9241 C   0  0  0  0  0  0  0  0  0  0  0  0
    2.1707    3.0057   -0.6324 H   0  0  0  0  0  0  0  0  0  0  0  0
    1.0133    2.5588   -1.8896 H   0  0  0  0  0  0  0  0  0  0  0  0
    0.2614    2.2155    0.0696 C   0  0  0  0  0  0  0  0  0  0  0  0
   -0.4460    1.4296   -0.2157 H   0  0  0  0  0  0  0  0  0  0  0  0
   -0.2441    3.1817    0.0156 H   0  0  0  0  0  0  0  0  0  0  0  0
    0.6116    1.9584    1.4924 N   0  0  0  0  0  0  0  0  0  0  0  0
    1.0649    0.5678    1.6680 C   0  0  0  0  0  0  0  0  0  0  0  0
    0.2595   -0.1000    1.3667 H   0  0  0  0  0  0  0  0  0  0  0  0
    1.3026    0.4112    2.7181 H   0  0  0  0  0  0  0  0  0  0  0  0
    1.9408    0.3874    1.0498 H   0  0  0  0  0  0  0  0  0  0  0  0
   -0.6044    2.1366    2.3057 C   0  0  0  0  0  0  0  0  0  0  0  0
   -1.3716    1.4527    1.9459 H   0  0  0  0  0  0  0  0  0  0  0  0
   -0.9616    3.1616    2.2324 H   0  0  0  0  0  0  0  0  0  0  0  0
   -0.3605    1.9094    3.3423 H   0  0  0  0  0  0  0  0  0  0  0  0
    1.6537    2.8702    1.9863 C   0  0  0  0  0  0  0  0  0  0  0  0
    1.3641    3.9045    1.8112 H   0  0  0  0  0  0  0  0  0  0  0  0
    2.5985    2.6682    1.4881 H   0  0  0  0  0  0  0  0  0  0  0  0
    1.7763    2.7015    3.0559 H   0  0  0  0  0  0  0  0  0  0  0  0
    1.5780    0.4148   -1.5723 H   0  0  0  0  0  0  0  0  0  0  0  0
    1.0483   -1.9447   -2.0834 C   0  0  0  0  0  0  0  0  0  0  0  0
    0.6944   -0.7980   -2.4096 O   0  0  0  0  0  0  0  0  0  0  0  0
    2.1850   -2.1366   -1.3757 N   0  0  0  0  0  0  0  0  0  0  0  0
    2.7959   -1.3516   -1.2267 H   0  0  0  0  0  0  0  0  0  0  0  0
    2.5422   -3.0580   -1.1997 H   0  0  0  0  0  0  0  0  0  0  0  0
    0.3128   -3.0167   -2.3829 N   0  0  0  0  0  0  0  0  0  0  0  0
    0.5995   -3.9401   -2.1145 H   0  0  0  0  0  0  0  0  0  0  0  0
   -0.5699   -2.9024   -2.8954 H   0  0  0  0  0  0  0  0  0  0  0  0
    1.4899    1.4068    5.9642 C   0  0  0  0  0  0  0  0  0  0  0  0
    1.2748    1.5287    4.7662 O   0  0  0  0  0  0  0  0  0  0  0  0
    0.5516    1.6886    6.8992 N   0  0  0  0  0  0  0  0  0  0  0  0
   -0.3247    2.0786    6.6031 H   0  0  0  0  0  0  0  0  0  0  0  0
    0.7528    1.6671    7.8818 H   0  0  0  0  0  0  0  0  0  0  0  0
    2.6841    0.9843    6.4434 N   0  0  0  0  0  0  0  0  0  0  0  0
    2.8351    0.8040    7.4187 H   0  0  0  0  0  0  0  0  0  0  0  0
    3.3866    0.6855    5.7914 H   0  0  0  0  0  0  0  0  0  0  0  0
   -1.7668   -1.8774   -4.8787 C   0  0  0  0  0  0  0  0  0  0  0  0
   -1.9805   -2.5686   -3.8813 O   0  0  0  0  0  0  0  0  0  0  0  0
   -0.7806   -0.9615   -4.9142 N   0  0  0  0  0  0  0  0  0  0  0  0
   -0.2257   -0.8002   -4.0797 H   0  0  0  0  0  0  0  0  0  0  0  0
   -0.6353   -0.3727   -5.7130 H   0  0  0  0  0  0  0  0  0  0  0  0
   -2.5298   -1.9951   -5.9894 N   0  0  0  0  0  0  0  0  0  0  0  0
   -2.3195   -1.5049   -6.8391 H   0  0  0  0  0  0  0  0  0  0  0  0
   -3.2187   -2.7256   -6.0161 H   0  0  0  0  0  0  0  0  0  0  0  0
   -2.4182   -0.7291   -0.3369 C   0  0  0  0  0  0  0  0  0  0  0  0
   -1.7698   -0.0833    0.4831 O   0  0  0  0  0  0  0  0  0  0  0  0
   -3.5241   -1.4294    0.0186 N   0  0  0  0  0  0  0  0  0  0  0  0
   -3.8932   -1.3086    0.9446 H   0  0  0  0  0  0  0  0  0  0  0  0
   -4.1090   -1.8577   -0.6756 H   0  0  0  0  0  0  0  0  0  0  0  0
   -2.0931   -0.7627   -1.6470 N   0  0  0  0  0  0  0  0  0  0  0  0
   -2.4815   -1.4704   -2.2550 H   0  0  0  0  0  0  0  0  0  0  0  0
   -1.1548   -0.4744   -1.8960 H   0  0  0  0  0  0  0  0  0  0  0  0
  1  2  1  0  0  0  0
  2  3  1  0  0  0  0
  2  4  1  0  0  0  0
  2  5  1  0  0  0  0
  5  6  1  0  0  0  0
  5  7  1  0  0  0  0
  5  8  1  0  0  0  0
  8  9  1  0  0  0  0
  9 10  1  0  0  0  0
  9 11  1  0  0  0  0
  9 12  1  0  0  0  0
  8 13  1  0  0  0  0
 13 14  1  0  0  0  0
 13 15  1  0  0  0  0
 13 16  1  0  0  0  0
  8 17  1  0  0  0  0
 17 18  1  0  0  0  0
 17 19  1  0  0  0  0
 17 20  1  0  0  0  0
  1 21  1  0  0  0  0
 22 23  4  0  0  0  0
 22 24  4  0  0  0  0
 24 25  1  0  0  0  0
 24 26  1  0  0  0  0
 22 27  4  0  0  0  0
 27 28  1  0  0  0  0
 27 29  1  0  0  0  0
 30 31  2  0  0  0  0
 30 32  4  0  0  0  0
 32 33  1  0  0  0  0
 32 34  1  0  0  0  0
 30 35  4  0  0  0  0
 35 36  1  0  0  0  0
 35 37  1  0  0  0  0
 38 39  4  0  0  0  0
 38 40  4  0  0  0  0
 40 41  1  0  0  0  0
 40 42  1  0  0  0  0
 38 43  4  0  0  0  0
 43 44  1  0  0  0  0
 43 45  1  0  0  0  0
 46 47  2  0  0  0  0
 46 48  4  0  0  0  0
 48 49  1  0  0  0  0
 48 50  1  0  0  0  0
 46 51  4  0  0  0  0
 51 52  1  0  0  0  0
 51 53  1  0  0  0  0
M  CHG  1   1   1
M  END
