  53

 O          0.2777680650       -1.8252419950       -0.0905649988
 C          0.3599202175       -0.5903866519       -0.7722097624
 H          1.2099430075       -0.0071252735       -0.4136095273
 H          0.5059690348       -0.7758645415       -1.8456547857
 C         -0.9500358219        0.1790613798       -0.6115534068
 H         -1.7672559495       -0.5469958284       -0.6303958890
 H         -1.0664969630        0.8926225293       -1.4282936476
 N         -1.0968135686        0.9487040504        0.6542563881
 C         -0.8785883296        0.0814792011        1.8195863181
 H         -1.5748056983       -0.7545947463        1.7593623025
 H         -1.0614269204        0.6422268596        2.7339558416
 H          0.1408669431       -0.2944494417        1.8299374526
 C         -2.4808365871        1.4539405170        0.6890197864
 H         -3.1699880703        0.6113522954        0.6791110172
 H         -2.6467859631        2.0842072457       -0.1827214977
 H         -2.6400628176        2.0387872863        1.5922826935
 C         -0.1765991664        2.0959771326        0.6805307609
 H         -0.3585041924        2.7073558581       -0.2017690950
 H          0.8618881243        1.7693375765        0.6947062514
 H         -0.3620047138        2.6902370664        1.5729256492
 H          1.1784273601       -2.1268296682        0.1404138091
 C          3.7663676717        0.9142594651       -0.0616068477
 O          2.8467323388        1.0976384876        0.7416347608
 N          4.4261123912        1.9591475617       -0.6153588003
 H          4.2299562206        2.8819657499       -0.2711045442
 H          5.2366789361        1.8288816957       -1.1923724371
 N          4.1263200338       -0.3151718923       -0.4603797683
 H          4.8819083526       -0.4631351388       -1.1033081822
 H          3.6491459953       -1.1265480989       -0.0665174597
 C         -2.1002948398        3.5301156502       -2.9747791586
 O         -1.6801714398        2.9339906836       -1.9933294356
 N         -1.7842789955        4.8228500590       -3.2260074036
 H         -1.1187308904        5.2790570211       -2.6286000752
 H         -2.0558053558        5.2848129468       -4.0742047026
 N         -2.9110683060        2.9381571376       -3.8862572620
 H         -3.3457967718        3.4577666068       -4.6265211002
 H         -3.2591345894        2.0167486839       -3.6901339501
 C         -3.2433909858       -2.7966852545        0.3673809814
 O         -3.2474907897       -1.5897931733        0.5804686539
 N         -4.3485826569       -3.5605583808        0.5647338108
 H         -5.2118502257       -3.0933165510        0.7774953094
 H         -4.3919848873       -4.5171520017        0.2645144649
 N         -2.1427639696       -3.4438074370       -0.0734730637
 H         -2.1196396548       -4.4445740435       -0.1413288834
 H         -1.2645083772       -2.9393062083       -0.1129884275
 C          2.7592308828       -2.1449283197        2.1341176796
 O          2.7491143470       -2.3476961963        0.9157635446
 N          2.5422306503       -0.9165597698        2.6472386947
 H          2.6172299879       -0.1222252936        2.0026244592
 H          2.7192776901       -0.7388504896        3.6202418851
 N          2.9371286962       -3.1585719041        3.0072436038
 H          2.9187903777       -3.0261091447        4.0015590728
 H          3.0388282762       -4.0898596776        2.6450008604
