  50

 C          0.0006157506       -0.0663761500       -0.0002849886
 O         -0.0016519268       -1.2890831348        0.0004358641
 N         -1.1742303850        0.6365745910       -0.0034144150
 H         -2.0585270570        0.1596169248        0.0117759439
 H         -1.2109948256        1.6429624947        0.0269089171
 N          1.1754958291        0.6340230740        0.0022085231
 H          1.2142719620        1.6386850800       -0.0198786808
 H          2.0565490174        0.1552434191       -0.0055707403
 O          0.1485940298       -3.4019408830       -1.9891721731
 C         -1.0662147951       -3.2984908529       -2.6988730849
 H         -0.9222440787       -3.7834009724       -3.6700709099
 H         -1.8131340702       -3.9021669139       -2.1658319049
 C         -1.5460870188       -1.8622193023       -2.8637724124
 H         -1.6240214990       -1.3916199866       -1.8839846373
 H         -2.5528810109       -1.8423729628       -3.2887741572
 N         -0.6548981395       -0.9741715065       -3.7313218923
 C          0.7828196699       -0.9731999197       -3.2714536017
 H          0.8510860862       -0.6358909071       -2.2417199917
 H          1.3805130000       -0.3099832463       -3.8925877561
 H          1.1990737562       -1.9750872457       -3.3378397679
 C         -1.1880592011        0.4425448258       -3.6596347633
 H         -1.1440657315        0.8134849570       -2.6382995489
 H         -2.2218832244        0.4762643651       -3.9957805136
 H         -0.5978450167        1.1029785903       -4.2908571412
 C         -0.7061064523       -1.4413931543       -5.1626117819
 H         -1.7364214650       -1.4657533225       -5.5072540440
 H         -0.2775896890       -2.4355404967       -5.2558271794
 H         -0.1389077093       -0.7603957679       -5.7913861707
 H          0.1464778235       -2.7244257087       -1.2653836088
 O         -2.8169419487       -1.8096282755        0.4261911411
 C         -2.9758961502       -3.0394025613        1.0908099610
 H         -3.9779391558       -3.0508834213        1.5321239156
 H         -2.9718770384       -3.8326789192        0.3309517111
 C         -1.9021034257       -3.2873985014        2.1418837027
 H         -0.9162515447       -3.2556489952        1.6732120333
 H         -2.0105899033       -4.2914313181        2.5601965124
 N         -1.8956788773       -2.2948693173        3.3054059328
 C         -1.5547858563       -0.8942641424        2.8626490523
 H         -0.6027103830       -0.8869726467        2.3387100217
 H         -1.4818946433       -0.2313909980        3.7220500199
 H         -2.3282829165       -0.5111435847        2.2032037105
 C         -0.8382859250       -2.7449105092        4.2916116473
 H          0.1417761377       -2.7471239079        3.8194615481
 H         -1.0540919185       -3.7499938770        4.6441281385
 H         -0.8069895605       -2.0746900278        5.1474610154
 C         -3.2415917248       -2.2738820038        3.9864462281
 H         -3.5359232301       -3.2837282057        4.2557229923
 H         -3.9979187036       -1.8528389387        3.3289775781
 H         -3.1971520207       -1.6638667675        4.8850191106
 H         -1.8431863904       -1.6951081649        0.2419306628
