  53

 O         -1.2463714062       -0.0903479187       -0.4895678903
 C         -1.2887856730       -0.5103345430        0.8549472734
 H         -1.3465551154        0.3940085713        1.4657527421
 H         -2.1992222280       -1.1034928740        1.0193481885
 C         -0.1224099198       -1.4095695947        1.2688757071
 H         -0.0408839787       -2.1985110755        0.5164136093
 H         -0.3682315655       -1.8606767791        2.2320800130
 N          1.2104269426       -0.7640706105        1.3886141021
 C          2.1989300033       -1.7960623647        1.7447199194
 H          1.9347992090       -2.2664267574        2.6900471633
 H          3.1762378878       -1.3240625014        1.8391593882
 H          2.2400938381       -2.5557263785        0.9666834241
 C          1.2179832753        0.2691514812        2.4369562049
 H          0.8395317459       -0.1368302323        3.3721391791
 H          0.6234679398        1.1253645406        2.1285175200
 H          2.2460857399        0.6074588262        2.5666270230
 C          1.6223144890       -0.1584163873        0.1102001088
 H          1.4876727096       -0.8709763750       -0.7001322892
 H          2.6667624910        0.1362420653        0.1933411809
 H          1.0290323780        0.7320194895       -0.0787196847
 H         -0.9206054493       -0.8560232305       -1.0284228052
 C         -0.6724777891       -3.0973067987       -2.3394308325
 O         -0.1176912367       -2.2067330345       -1.6877766164
 N         -1.9795999694       -3.3669687165       -2.2245232268
 H         -2.5442816310       -2.9185471508       -1.5011591247
 H         -2.3833509471       -4.1520071585       -2.7025336534
 N          0.0370662149       -3.8621132796       -3.2051249739
 H         -0.4112135916       -4.5156211818       -3.8209634789
 H          0.9867341649       -3.6021610472       -3.4039818820
 C         -0.0297992382        3.4053709315       -0.1190588409
 O          0.6752391383        2.7802540753        0.6653775398
 N         -0.9955390818        2.8041916780       -0.8472440058
 H         -1.0665107157        1.7939507908       -0.8210519961
 H         -1.4807188587        3.2970757505       -1.5741548164
 N          0.1228953125        4.7405725283       -0.3120919389
 H         -0.5461930695        5.2738177360       -0.8374088196
 H          0.7202175488        5.2421166494        0.3212361454
 C          4.4385817148        2.0192265005        1.5024534189
 O          4.0913987128        0.8524640001        1.6448924026
 N          5.7456453885        2.3817997106        1.5588160389
 H          6.4135963531        1.6854783319        1.8380623697
 H          6.0319048388        3.3433850844        1.5797327688
 N          3.5589178975        3.0189882392        1.2719761119
 H          3.8850520146        3.9482227432        1.0793436478
 H          2.5775909779        2.8209505676        1.1148160015
 C         -4.5257480554       -1.3408109032       -0.6987289209
 O         -3.7455300536       -2.2357585411       -0.3928373544
 N         -5.8668814105       -1.4989245610       -0.6035664944
 H         -6.2205201548       -2.4042399415       -0.3504519486
 H         -6.5151747874       -0.8077055276       -0.9328855195
 N         -4.0909989102       -0.1435941931       -1.1582138228
 H         -4.7206916821        0.6283082717       -1.2786560767
 H         -3.0974465117        0.0432909094       -1.0891756772
