 xtb: 6.6.1 (unknown-commit)
          01102418253D

 53 48  0     0  0            999 V2000
   -1.2464   -0.0903   -0.4896 O   0  0  0  0  0  0  0  0  0  0  0  0
   -1.2888   -0.5103    0.8550 C   0  0  0  0  0  0  0  0  0  0  0  0
   -1.3465    0.3940    1.4658 H   0  0  0  0  0  0  0  0  0  0  0  0
   -2.1992   -1.1035    1.0194 H   0  0  0  0  0  0  0  0  0  0  0  0
   -0.1224   -1.4096    1.2689 C   0  0  0  0  0  0  0  0  0  0  0  0
   -0.0409   -2.1985    0.5164 H   0  0  0  0  0  0  0  0  0  0  0  0
   -0.3682   -1.8607    2.2321 H   0  0  0  0  0  0  0  0  0  0  0  0
    1.2104   -0.7641    1.3886 N   0  0  0  0  0  0  0  0  0  0  0  0
    2.1989   -1.7961    1.7447 C   0  0  0  0  0  0  0  0  0  0  0  0
    1.9348   -2.2664    2.6900 H   0  0  0  0  0  0  0  0  0  0  0  0
    3.1762   -1.3241    1.8392 H   0  0  0  0  0  0  0  0  0  0  0  0
    2.2401   -2.5557    0.9667 H   0  0  0  0  0  0  0  0  0  0  0  0
    1.2180    0.2691    2.4370 C   0  0  0  0  0  0  0  0  0  0  0  0
    0.8395   -0.1368    3.3721 H   0  0  0  0  0  0  0  0  0  0  0  0
    0.6235    1.1254    2.1285 H   0  0  0  0  0  0  0  0  0  0  0  0
    2.2461    0.6075    2.5666 H   0  0  0  0  0  0  0  0  0  0  0  0
    1.6223   -0.1584    0.1102 C   0  0  0  0  0  0  0  0  0  0  0  0
    1.4877   -0.8710   -0.7001 H   0  0  0  0  0  0  0  0  0  0  0  0
    2.6668    0.1362    0.1933 H   0  0  0  0  0  0  0  0  0  0  0  0
    1.0290    0.7320   -0.0787 H   0  0  0  0  0  0  0  0  0  0  0  0
   -0.9206   -0.8560   -1.0284 H   0  0  0  0  0  0  0  0  0  0  0  0
   -0.6725   -3.0973   -2.3394 C   0  0  0  0  0  0  0  0  0  0  0  0
   -0.1177   -2.2067   -1.6878 O   0  0  0  0  0  0  0  0  0  0  0  0
   -1.9796   -3.3670   -2.2245 N   0  0  0  0  0  0  0  0  0  0  0  0
   -2.5443   -2.9185   -1.5011 H   0  0  0  0  0  0  0  0  0  0  0  0
   -2.3834   -4.1520   -2.7025 H   0  0  0  0  0  0  0  0  0  0  0  0
    0.0370   -3.8621   -3.2051 N   0  0  0  0  0  0  0  0  0  0  0  0
   -0.4113   -4.5156   -3.8210 H   0  0  0  0  0  0  0  0  0  0  0  0
    0.9867   -3.6022   -3.4040 H   0  0  0  0  0  0  0  0  0  0  0  0
   -0.0298    3.4054   -0.1191 C   0  0  0  0  0  0  0  0  0  0  0  0
    0.6753    2.7803    0.6654 O   0  0  0  0  0  0  0  0  0  0  0  0
   -0.9955    2.8042   -0.8472 N   0  0  0  0  0  0  0  0  0  0  0  0
   -1.0665    1.7940   -0.8211 H   0  0  0  0  0  0  0  0  0  0  0  0
   -1.4807    3.2971   -1.5742 H   0  0  0  0  0  0  0  0  0  0  0  0
    0.1229    4.7406   -0.3121 N   0  0  0  0  0  0  0  0  0  0  0  0
   -0.5462    5.2738   -0.8374 H   0  0  0  0  0  0  0  0  0  0  0  0
    0.7202    5.2421    0.3212 H   0  0  0  0  0  0  0  0  0  0  0  0
    4.4386    2.0192    1.5024 C   0  0  0  0  0  0  0  0  0  0  0  0
    4.0914    0.8524    1.6449 O   0  0  0  0  0  0  0  0  0  0  0  0
    5.7457    2.3818    1.5588 N   0  0  0  0  0  0  0  0  0  0  0  0
    6.4136    1.6854    1.8380 H   0  0  0  0  0  0  0  0  0  0  0  0
    6.0319    3.3434    1.5797 H   0  0  0  0  0  0  0  0  0  0  0  0
    3.5589    3.0190    1.2720 N   0  0  0  0  0  0  0  0  0  0  0  0
    3.8851    3.9482    1.0793 H   0  0  0  0  0  0  0  0  0  0  0  0
    2.5776    2.8209    1.1148 H   0  0  0  0  0  0  0  0  0  0  0  0
   -4.5258   -1.3408   -0.6987 C   0  0  0  0  0  0  0  0  0  0  0  0
   -3.7455   -2.2357   -0.3928 O   0  0  0  0  0  0  0  0  0  0  0  0
   -5.8669   -1.4989   -0.6035 N   0  0  0  0  0  0  0  0  0  0  0  0
   -6.2205   -2.4042   -0.3504 H   0  0  0  0  0  0  0  0  0  0  0  0
   -6.5152   -0.8077   -0.9329 H   0  0  0  0  0  0  0  0  0  0  0  0
   -4.0910   -0.1436   -1.1582 N   0  0  0  0  0  0  0  0  0  0  0  0
   -4.7207    0.6283   -1.2786 H   0  0  0  0  0  0  0  0  0  0  0  0
   -3.0975    0.0433   -1.0892 H   0  0  0  0  0  0  0  0  0  0  0  0
  1  2  1  0  0  0  0
  2  3  1  0  0  0  0
  2  4  1  0  0  0  0
  2  5  1  0  0  0  0
  5  6  1  0  0  0  0
  5  7  1  0  0  0  0
  5  8  1  0  0  0  0
  8  9  1  0  0  0  0
  9 10  1  0  0  0  0
  9 11  1  0  0  0  0
  9 12  1  0  0  0  0
  8 13  1  0  0  0  0
 13 14  1  0  0  0  0
 13 15  1  0  0  0  0
 13 16  1  0  0  0  0
  8 17  1  0  0  0  0
 17 18  1  0  0  0  0
 17 19  1  0  0  0  0
 17 20  1  0  0  0  0
  1 21  1  0  0  0  0
 22 23  4  0  0  0  0
 22 24  4  0  0  0  0
 24 25  1  0  0  0  0
 24 26  1  0  0  0  0
 22 27  4  0  0  0  0
 27 28  1  0  0  0  0
 27 29  1  0  0  0  0
 30 31  2  0  0  0  0
 30 32  4  0  0  0  0
 32 33  1  0  0  0  0
 32 34  1  0  0  0  0
 30 35  1  0  0  0  0
 35 36  1  0  0  0  0
 35 37  1  0  0  0  0
 38 39  2  0  0  0  0
 38 40  1  0  0  0  0
 40 41  1  0  0  0  0
 40 42  1  0  0  0  0
 38 43  4  0  0  0  0
 43 44  1  0  0  0  0
 43 45  1  0  0  0  0
 46 47  2  0  0  0  0
 46 48  4  0  0  0  0
 48 49  1  0  0  0  0
 48 50  1  0  0  0  0
 46 51  4  0  0  0  0
 51 52  1  0  0  0  0
 51 53  1  0  0  0  0
M  CHG  1   1   1
M  END
