  53

 O         -0.3810627283       -2.2565317712        3.6179886156
 C         -1.0214094989       -1.3559489570        2.7387847533
 H         -2.1101737153       -1.3943322991        2.8865205943
 H         -0.6983994247       -0.3253575563        2.9306119762
 C         -0.6667833374       -1.6483340439        1.2812392188
 H          0.3881188782       -1.4369171257        1.0902234084
 H         -1.2821188632       -0.9895067542        0.6662989453
 N         -0.8938528644       -3.0423952039        0.8120374236
 C          0.1934356385       -3.9146488276        1.2885421982
 H          1.1330224022       -3.5566915428        0.8701020207
 H          0.0184727218       -4.9384681101        0.9651543827
 H          0.2473388306       -3.8758201143        2.3732137529
 C         -0.8640395170       -3.0233150834       -0.6608833821
 H          0.0751011277       -2.5746615555       -0.9833311895
 H         -1.7020638285       -2.4382293579       -1.0319845654
 H         -0.9303741624       -4.0389909040       -1.0447515865
 C         -2.1988785762       -3.5472166921        1.2576097626
 H         -2.2053115390       -3.6645466133        2.3385681378
 H         -2.3956573219       -4.5153190674        0.8006832035
 H         -2.9738842925       -2.8455825057        0.9512847520
 H         -0.4011516844       -1.9085254656        4.5143906008
 C          2.5727433493       -0.7026667636       -0.5413491652
 O          1.9136161962       -1.7121346002       -0.3066879050
 N          3.3824857528       -0.6097364438       -1.6292373829
 H          3.6381989366       -1.4612551416       -2.0986068443
 H          4.0088727065        0.1729580105       -1.7088090473
 N          2.5466396876        0.3955526840        0.2468252556
 H          2.8942744092        1.2706996101       -0.1335140546
 H          1.7911233892        0.4771884436        0.9062614271
 C          2.5400490508        3.8407256434       -0.5165336036
 O          3.0021099109        2.8543901057       -1.0984029095
 N          3.2457516663        4.9887411523       -0.4237180715
 H          4.1737486015        5.0119968798       -0.8069784423
 H          2.9138543450        5.7877356337        0.0839694250
 N          1.3286313390        3.8133181217        0.0679153513
 H          0.9220260206        4.6455571081        0.4539170231
 H          0.7282756415        2.9996748733       -0.0819899288
 C         -0.0547942446        1.0112280047       -1.6115159134
 O         -0.2542082435        1.5290852135       -0.5002210556
 N          0.9758864306        1.3779648877       -2.3899956736
 H          1.7234681262        1.9495091876       -1.9938400495
 H          1.1857775822        0.8631642677       -3.2260176892
 N         -0.8823518691        0.0620553449       -2.0909438292
 H         -0.7804436780       -0.2852900568       -3.0265684569
 H         -1.7220945308       -0.1772133041       -1.5701380187
 C         -3.6182887138        0.3730595039        0.0524221741
 O         -3.0841753745       -0.6403988447       -0.4085740762
 N         -4.9436204641        0.3957847284        0.3371067652
 H         -5.5089070056       -0.3731618046        0.0226094653
 H         -5.4126049041        1.2467149583        0.5898055795
 N         -2.9083308704        1.4689756254        0.3635801221
 H         -3.3621454139        2.3089741189        0.6726607329
 H         -1.9162373954        1.5152433361        0.1073984052
