 xtb: 6.6.1 (unknown-commit)
          01102418273D

 53 48  0     0  0            999 V2000
    3.0334    0.5942   -0.3226 O   0  0  0  0  0  0  0  0  0  0  0  0
    2.7219   -0.3179    0.6945 C   0  0  0  0  0  0  0  0  0  0  0  0
    3.6553   -0.8197    0.9584 H   0  0  0  0  0  0  0  0  0  0  0  0
    2.3688    0.2106    1.5916 H   0  0  0  0  0  0  0  0  0  0  0  0
    1.6204   -1.3173    0.3304 C   0  0  0  0  0  0  0  0  0  0  0  0
    0.7401   -0.7673   -0.0104 H   0  0  0  0  0  0  0  0  0  0  0  0
    1.3515   -1.8896    1.2234 H   0  0  0  0  0  0  0  0  0  0  0  0
    1.9511   -2.3174   -0.7229 N   0  0  0  0  0  0  0  0  0  0  0  0
    2.2345   -1.6523   -2.0034 C   0  0  0  0  0  0  0  0  0  0  0  0
    1.3484   -1.1128   -2.3330 H   0  0  0  0  0  0  0  0  0  0  0  0
    2.5033   -2.3908   -2.7565 H   0  0  0  0  0  0  0  0  0  0  0  0
    3.0492   -0.9400   -1.8825 H   0  0  0  0  0  0  0  0  0  0  0  0
    0.7812   -3.2018   -0.8787 C   0  0  0  0  0  0  0  0  0  0  0  0
   -0.1124   -2.6086   -1.0655 H   0  0  0  0  0  0  0  0  0  0  0  0
    0.6356   -3.7524    0.0504 H   0  0  0  0  0  0  0  0  0  0  0  0
    0.9443   -3.8973   -1.6986 H   0  0  0  0  0  0  0  0  0  0  0  0
    3.0974   -3.1415   -0.3096 C   0  0  0  0  0  0  0  0  0  0  0  0
    4.0073   -2.5473   -0.2833 H   0  0  0  0  0  0  0  0  0  0  0  0
    3.2371   -3.9587   -1.0147 H   0  0  0  0  0  0  0  0  0  0  0  0
    2.8967   -3.5542    0.6783 H   0  0  0  0  0  0  0  0  0  0  0  0
    2.2207    1.1200   -0.5187 H   0  0  0  0  0  0  0  0  0  0  0  0
   -0.3267   -3.4800    2.7327 C   0  0  0  0  0  0  0  0  0  0  0  0
    0.7505   -3.5638    2.1503 O   0  0  0  0  0  0  0  0  0  0  0  0
   -1.3065   -2.6384    2.3313 N   0  0  0  0  0  0  0  0  0  0  0  0
   -1.2457   -2.1806    1.4267 H   0  0  0  0  0  0  0  0  0  0  0  0
   -2.2180   -2.6948    2.7492 H   0  0  0  0  0  0  0  0  0  0  0  0
   -0.5932   -4.2207    3.8359 N   0  0  0  0  0  0  0  0  0  0  0  0
   -1.4267   -4.0924    4.3795 H   0  0  0  0  0  0  0  0  0  0  0  0
    0.1474   -4.7773    4.2236 H   0  0  0  0  0  0  0  0  0  0  0  0
    0.9363    3.0526    0.3172 C   0  0  0  0  0  0  0  0  0  0  0  0
    0.8055    2.1056   -0.4745 O   0  0  0  0  0  0  0  0  0  0  0  0
    2.1199    3.2830    0.9306 N   0  0  0  0  0  0  0  0  0  0  0  0
    2.9261    2.7555    0.6360 H   0  0  0  0  0  0  0  0  0  0  0  0
    2.2698    4.1031    1.4896 H   0  0  0  0  0  0  0  0  0  0  0  0
   -0.0885    3.8513    0.6366 N   0  0  0  0  0  0  0  0  0  0  0  0
    0.0274    4.6298    1.2591 H   0  0  0  0  0  0  0  0  0  0  0  0
   -0.9981    3.7081    0.1927 H   0  0  0  0  0  0  0  0  0  0  0  0
   -2.2611    3.2394   -1.9717 C   0  0  0  0  0  0  0  0  0  0  0  0
   -2.4692    3.3420   -0.7594 O   0  0  0  0  0  0  0  0  0  0  0  0
   -1.1324    2.6942   -2.4527 N   0  0  0  0  0  0  0  0  0  0  0  0
   -0.4154    2.3881   -1.7952 H   0  0  0  0  0  0  0  0  0  0  0  0
   -0.9541    2.6314   -3.4376 H   0  0  0  0  0  0  0  0  0  0  0  0
   -3.1978    3.6209   -2.8744 N   0  0  0  0  0  0  0  0  0  0  0  0
   -2.9873    3.6887   -3.8539 H   0  0  0  0  0  0  0  0  0  0  0  0
   -3.9908    4.1353   -2.5313 H   0  0  0  0  0  0  0  0  0  0  0  0
   -2.0962   -0.1424   -0.2826 C   0  0  0  0  0  0  0  0  0  0  0  0
   -1.4548   -1.1887   -0.1911 O   0  0  0  0  0  0  0  0  0  0  0  0
   -2.9999    0.0528   -1.2766 N   0  0  0  0  0  0  0  0  0  0  0  0
   -3.2909   -0.7454   -1.8135 H   0  0  0  0  0  0  0  0  0  0  0  0
   -3.6165    0.8450   -1.2412 H   0  0  0  0  0  0  0  0  0  0  0  0
   -1.9563    0.8809    0.5846 N   0  0  0  0  0  0  0  0  0  0  0  0
   -2.2901    1.8017    0.3197 H   0  0  0  0  0  0  0  0  0  0  0  0
   -1.1729    0.8480    1.2143 H   0  0  0  0  0  0  0  0  0  0  0  0
  1  2  1  0  0  0  0
  2  3  1  0  0  0  0
  2  4  1  0  0  0  0
  2  5  1  0  0  0  0
  5  6  1  0  0  0  0
  5  7  1  0  0  0  0
  5  8  1  0  0  0  0
  8  9  1  0  0  0  0
  9 10  1  0  0  0  0
  9 11  1  0  0  0  0
  9 12  1  0  0  0  0
  8 13  1  0  0  0  0
 13 14  1  0  0  0  0
 13 15  1  0  0  0  0
 13 16  1  0  0  0  0
  8 17  1  0  0  0  0
 17 18  1  0  0  0  0
 17 19  1  0  0  0  0
 17 20  1  0  0  0  0
  1 21  1  0  0  0  0
 22 23  2  0  0  0  0
 22 24  4  0  0  0  0
 24 25  1  0  0  0  0
 24 26  1  0  0  0  0
 22 27  4  0  0  0  0
 27 28  1  0  0  0  0
 27 29  1  0  0  0  0
 30 31  4  0  0  0  0
 30 32  4  0  0  0  0
 32 33  1  0  0  0  0
 32 34  1  0  0  0  0
 30 35  4  0  0  0  0
 35 36  1  0  0  0  0
 35 37  1  0  0  0  0
 38 39  4  0  0  0  0
 38 40  4  0  0  0  0
 40 41  1  0  0  0  0
 40 42  1  0  0  0  0
 38 43  4  0  0  0  0
 43 44  1  0  0  0  0
 43 45  1  0  0  0  0
 46 47  2  0  0  0  0
 46 48  4  0  0  0  0
 48 49  1  0  0  0  0
 48 50  1  0  0  0  0
 46 51  4  0  0  0  0
 51 52  1  0  0  0  0
 51 53  1  0  0  0  0
M  CHG  1   1   1
M  END
