  53

 O         -1.8109323005        2.0585360973        0.2981151244
 C         -2.9679193580        1.3594434483        0.6358917784
 H         -3.6347100846        1.9814790495        1.2517704375
 H         -3.4914014870        1.1365299897       -0.2975107373
 C         -2.7027279067        0.0869721800        1.4551591286
 H         -3.6677296497       -0.3699060958        1.6825656091
 H         -2.2177203368        0.3921807403        2.3851829247
 N         -1.8366176949       -0.9399120673        0.8113303995
 C         -2.1936791859       -1.1613288728       -0.5985824155
 H         -3.2549195640       -1.3834341530       -0.6904194630
 H         -1.6098871043       -2.0064966192       -0.9636025432
 H         -1.9421605313       -0.2809930027       -1.1848347227
 C         -1.9936403026       -2.2090214460        1.5436727348
 H         -1.7280462932       -2.0712902136        2.5895174993
 H         -1.3387814461       -2.9559742739        1.0946902668
 H         -3.0230148163       -2.5569460030        1.4809789885
 C         -0.4163280044       -0.5516022831        0.8642571416
 H          0.1742958227       -1.3422217478        0.4050960371
 H         -0.1060336758       -0.4051474683        1.8959389225
 H         -0.2622483376        0.3776863815        0.3226600157
 H         -1.3203503560        2.2174592328        1.1420545823
 C          2.6348242496       -0.8879710916       -1.2433324777
 O          1.6057530562       -0.9436894450       -1.9269269751
 N          2.8813017925        0.1325190006       -0.4112849205
 H          2.2459913491        0.9359153723       -0.4029803697
 H          3.7646967403        0.2141980153        0.0575126005
 N          3.5619302024       -1.8741428003       -1.2989745638
 H          4.3536932782       -1.8874120296       -0.6827277583
 H          3.3464160342       -2.7085645970       -1.8155523533
 C          0.3283361144        2.3837069474       -1.4166365547
 O          1.0823683889        2.2436555853       -0.4461342218
 N          0.0410617281        1.3586850056       -2.2386577968
 H          0.5989816495        0.5019444481       -2.1611107718
 H         -0.4191613082        1.5365412897       -3.1137251421
 N         -0.2295407872        3.5834536254       -1.7022437508
 H         -1.0010346603        3.6381988331       -2.3434823167
 H         -0.1951307862        4.2868611011       -0.9841414297
 C          0.1880979250       -4.1812244209       -1.5294734650
 O         -0.2244246529       -3.5523927445       -0.5606471885
 N         -0.1423635345       -5.4847190587       -1.7264801270
 H         -0.6094104893       -5.9711359155       -0.9816741335
 H          0.3096510843       -6.0392841570       -2.4308511502
 N          0.9893887494       -3.6196630019       -2.4602743888
 H          1.1493892066       -4.0788754828       -3.3391342270
 H          1.1299626898       -2.6083268845       -2.4062810600
 C          0.1911014608        2.9611317143        3.0032685605
 O         -0.6833455484        2.1363911985        2.7348895892
 N          0.9806851699        3.5049363355        2.0586339620
 H          1.0015340894        3.0811074888        1.1294599638
 H          1.7647984273        4.0743065053        2.3229644059
 N          0.3984429711        3.3703394144        4.2799190143
 H          1.0093554989        4.1379281455        4.4931725430
 H         -0.2698140614        3.0965411706        4.9785629062
