 xtb: 6.6.1 (unknown-commit)
          01102415333D

 53 48  0     0  0            999 V2000
   -1.8109    2.0585    0.2981 O   0  0  0  0  0  0  0  0  0  0  0  0
   -2.9679    1.3595    0.6359 C   0  0  0  0  0  0  0  0  0  0  0  0
   -3.6347    1.9815    1.2518 H   0  0  0  0  0  0  0  0  0  0  0  0
   -3.4914    1.1365   -0.2975 H   0  0  0  0  0  0  0  0  0  0  0  0
   -2.7027    0.0870    1.4552 C   0  0  0  0  0  0  0  0  0  0  0  0
   -3.6677   -0.3699    1.6826 H   0  0  0  0  0  0  0  0  0  0  0  0
   -2.2177    0.3922    2.3852 H   0  0  0  0  0  0  0  0  0  0  0  0
   -1.8366   -0.9399    0.8113 N   0  0  0  0  0  0  0  0  0  0  0  0
   -2.1937   -1.1613   -0.5986 C   0  0  0  0  0  0  0  0  0  0  0  0
   -3.2549   -1.3834   -0.6904 H   0  0  0  0  0  0  0  0  0  0  0  0
   -1.6099   -2.0065   -0.9636 H   0  0  0  0  0  0  0  0  0  0  0  0
   -1.9422   -0.2810   -1.1848 H   0  0  0  0  0  0  0  0  0  0  0  0
   -1.9936   -2.2090    1.5437 C   0  0  0  0  0  0  0  0  0  0  0  0
   -1.7280   -2.0713    2.5895 H   0  0  0  0  0  0  0  0  0  0  0  0
   -1.3388   -2.9560    1.0947 H   0  0  0  0  0  0  0  0  0  0  0  0
   -3.0230   -2.5569    1.4810 H   0  0  0  0  0  0  0  0  0  0  0  0
   -0.4163   -0.5516    0.8643 C   0  0  0  0  0  0  0  0  0  0  0  0
    0.1743   -1.3422    0.4051 H   0  0  0  0  0  0  0  0  0  0  0  0
   -0.1060   -0.4051    1.8959 H   0  0  0  0  0  0  0  0  0  0  0  0
   -0.2622    0.3777    0.3227 H   0  0  0  0  0  0  0  0  0  0  0  0
   -1.3203    2.2175    1.1421 H   0  0  0  0  0  0  0  0  0  0  0  0
    2.6348   -0.8880   -1.2433 C   0  0  0  0  0  0  0  0  0  0  0  0
    1.6057   -0.9437   -1.9269 O   0  0  0  0  0  0  0  0  0  0  0  0
    2.8813    0.1325   -0.4113 N   0  0  0  0  0  0  0  0  0  0  0  0
    2.2460    0.9359   -0.4030 H   0  0  0  0  0  0  0  0  0  0  0  0
    3.7647    0.2142    0.0575 H   0  0  0  0  0  0  0  0  0  0  0  0
    3.5619   -1.8742   -1.2990 N   0  0  0  0  0  0  0  0  0  0  0  0
    4.3537   -1.8874   -0.6827 H   0  0  0  0  0  0  0  0  0  0  0  0
    3.3464   -2.7086   -1.8156 H   0  0  0  0  0  0  0  0  0  0  0  0
    0.3283    2.3837   -1.4166 C   0  0  0  0  0  0  0  0  0  0  0  0
    1.0824    2.2436   -0.4461 O   0  0  0  0  0  0  0  0  0  0  0  0
    0.0411    1.3587   -2.2387 N   0  0  0  0  0  0  0  0  0  0  0  0
    0.5990    0.5019   -2.1611 H   0  0  0  0  0  0  0  0  0  0  0  0
   -0.4192    1.5365   -3.1137 H   0  0  0  0  0  0  0  0  0  0  0  0
   -0.2295    3.5835   -1.7022 N   0  0  0  0  0  0  0  0  0  0  0  0
   -1.0010    3.6382   -2.3435 H   0  0  0  0  0  0  0  0  0  0  0  0
   -0.1951    4.2869   -0.9841 H   0  0  0  0  0  0  0  0  0  0  0  0
    0.1881   -4.1812   -1.5295 C   0  0  0  0  0  0  0  0  0  0  0  0
   -0.2244   -3.5524   -0.5606 O   0  0  0  0  0  0  0  0  0  0  0  0
   -0.1424   -5.4847   -1.7265 N   0  0  0  0  0  0  0  0  0  0  0  0
   -0.6094   -5.9711   -0.9817 H   0  0  0  0  0  0  0  0  0  0  0  0
    0.3096   -6.0393   -2.4308 H   0  0  0  0  0  0  0  0  0  0  0  0
    0.9894   -3.6197   -2.4603 N   0  0  0  0  0  0  0  0  0  0  0  0
    1.1494   -4.0789   -3.3391 H   0  0  0  0  0  0  0  0  0  0  0  0
    1.1299   -2.6083   -2.4063 H   0  0  0  0  0  0  0  0  0  0  0  0
    0.1911    2.9611    3.0033 C   0  0  0  0  0  0  0  0  0  0  0  0
   -0.6833    2.1364    2.7349 O   0  0  0  0  0  0  0  0  0  0  0  0
    0.9807    3.5049    2.0586 N   0  0  0  0  0  0  0  0  0  0  0  0
    1.0016    3.0811    1.1295 H   0  0  0  0  0  0  0  0  0  0  0  0
    1.7648    4.0743    2.3230 H   0  0  0  0  0  0  0  0  0  0  0  0
    0.3985    3.3703    4.2799 N   0  0  0  0  0  0  0  0  0  0  0  0
    1.0094    4.1379    4.4932 H   0  0  0  0  0  0  0  0  0  0  0  0
   -0.2698    3.0966    4.9786 H   0  0  0  0  0  0  0  0  0  0  0  0
  1  2  1  0  0  0  0
  2  3  1  0  0  0  0
  2  4  1  0  0  0  0
  2  5  1  0  0  0  0
  5  6  1  0  0  0  0
  5  7  1  0  0  0  0
  5  8  1  0  0  0  0
  8  9  1  0  0  0  0
  9 10  1  0  0  0  0
  9 11  1  0  0  0  0
  9 12  1  0  0  0  0
  8 13  1  0  0  0  0
 13 14  1  0  0  0  0
 13 15  1  0  0  0  0
 13 16  1  0  0  0  0
  8 17  1  0  0  0  0
 17 18  1  0  0  0  0
 17 19  1  0  0  0  0
 17 20  1  0  0  0  0
  1 21  1  0  0  0  0
 22 23  4  0  0  0  0
 22 24  4  0  0  0  0
 24 25  1  0  0  0  0
 24 26  1  0  0  0  0
 22 27  4  0  0  0  0
 27 28  1  0  0  0  0
 27 29  1  0  0  0  0
 30 31  4  0  0  0  0
 30 32  4  0  0  0  0
 32 33  1  0  0  0  0
 32 34  1  0  0  0  0
 30 35  4  0  0  0  0
 35 36  1  0  0  0  0
 35 37  1  0  0  0  0
 38 39  2  0  0  0  0
 38 40  1  0  0  0  0
 40 41  1  0  0  0  0
 40 42  1  0  0  0  0
 38 43  4  0  0  0  0
 43 44  1  0  0  0  0
 43 45  1  0  0  0  0
 46 47  4  0  0  0  0
 46 48  4  0  0  0  0
 48 49  1  0  0  0  0
 48 50  1  0  0  0  0
 46 51  4  0  0  0  0
 51 52  1  0  0  0  0
 51 53  1  0  0  0  0
M  CHG  1   1   1
M  END
