  53

 O         -2.0560583815        0.9495895719        2.1797079912
 C         -0.6691280242        1.0793128969        2.0590444422
 H         -0.4463668004        2.1444315773        2.1578200572
 H         -0.1570208468        0.5549591945        2.8796793352
 C         -0.1053787335        0.4828931024        0.7649662505
 H         -0.4317865386       -0.5598577708        0.7284420791
 H          0.9834111719        0.5140537182        0.8036566836
 N         -0.5268827847        1.1335457998       -0.5026214888
 C         -1.9792248802        1.0148579232       -0.7092656652
 H         -2.2698489975       -0.0330230669       -0.6698366236
 H         -2.2270962326        1.4398765254       -1.6803714532
 H         -2.5109193119        1.5465261911        0.0766717069
 C          0.1652560346        0.4569289125       -1.6127062004
 H         -0.1019246823       -0.5970407760       -1.6243619786
 H          1.2416015627        0.5494668782       -1.4821160808
 H         -0.1366192326        0.9235119746       -2.5491133476
 C         -0.1488840000        2.5536813524       -0.5339187002
 H          0.9207633311        2.6496623528       -0.3584749439
 H         -0.6958965580        3.1085898697        0.2235405552
 H         -0.3999805361        2.9518624366       -1.5167850644
 H         -2.2743777123        0.0093616941        2.0250286077
 C          3.6349987404        0.4565520521        1.1752936851
 O          3.0120895422        0.4405089655        0.1091128288
 N          4.6465806674        1.3317730614        1.3804066376
 H          4.9478022644        1.9036402640        0.6118155214
 H          5.2124153932        1.3090863915        2.2086832206
 N          3.3064328546       -0.3482459166        2.1994513743
 H          3.8502139727       -0.3710406052        3.0423414514
 H          2.5845881065       -1.0581487188        2.0637445654
 C         -1.7432608294        3.0742647645       -4.4646961110
 O         -1.3550770341        2.5274301334       -3.4415847731
 N         -1.4005517687        4.3462283222       -4.7791633683
 H         -0.7347525436        4.8242337130       -4.1992742879
 H         -1.6435121170        4.7613183446       -5.6597256488
 N         -2.5443400648        2.4465894046       -5.3589714770
 H         -2.9437851353        2.9265110201       -6.1444040434
 H         -2.9049163214        1.5385988947       -5.1271473425
 C         -2.0982925450       -2.5599968338        2.4201917054
 O         -2.0970023217       -1.7271021439        1.5168426583
 N         -3.2338102128       -2.8681446589        3.0937106915
 H         -4.1006677197       -2.4754818132        2.7720046625
 H         -3.2726152132       -3.6163110203        3.7613628173
 N         -0.9815790862       -3.2245357728        2.7884075270
 H         -0.9726401348       -3.7590179937        3.6390633516
 H         -0.0873640438       -2.8795693145        2.4384354153
 C          1.5685497995       -2.8324814079        0.4432892376
 O          1.4102487343       -2.3416174836        1.5649061010
 N          2.1046260646       -2.1303883964       -0.5700940500
 H          2.4824868709       -1.2010071651       -0.3725287214
 H          2.3668166528       -2.5796293473       -1.4285288701
 N          1.1769470395       -4.0985031417        0.1715201611
 H          1.2500155961       -4.4955106819       -0.7468712088
 H          0.6966572707       -4.6205659644        0.8824601664
