53
 xtb: 6.6.1 (unknown-commit)
O           -2.06345037218835        0.94318105483711        2.17574417132841
C           -0.67561758393844        1.07741891137094        2.05862835514150
H           -0.44910906427393        2.14405307177138        2.15788765906435
H           -0.15900267412399        0.55476490650196        2.87985276930872
C           -0.10751313036627        0.48270340013361        0.76564603836612
H           -0.43157230001239       -0.56016308327232        0.72839092100190
H            0.98274873803389        0.51483584122987        0.80451308064181
N           -0.52823716054690        1.13229723382089       -0.50274183486722
C           -1.97971229351255        1.00994751081515       -0.71248333185457
H           -2.26921564065192       -0.03466102654570       -0.67098009898111
H           -2.22678602189108        1.43832822820017       -1.68148549548685
H           -2.51193957180395        1.54471685519799        0.07541245099164
C            0.16799130282356        0.45763262229133       -1.61147324614909
H           -0.10026533088599       -0.59705669662057       -1.62413014744448
H            1.24224530065252        0.55054168296918       -1.48117854982109
H           -0.13573173463269        0.92334733405433       -2.54895906194015
C           -0.15383022370512        2.55353627248000       -0.53308167424153
H            0.91918491908461        2.65041387186435       -0.35773336190687
H           -0.69806697773986        3.10809608783915        0.22357010382967
H           -0.40130188108424        2.95179624988436       -1.51657630629713
H           -2.27541991674393        0.00760110092366        2.02389436541860
C            3.63228154511537        0.46361615552053        1.18214975109805
O            3.01164512242170        0.44854973330475        0.11544993134998
N            4.64106863198318        1.34158773785393        1.39130831429811
H            4.94646816451909        1.90670817610708        0.61511688926789
H            5.21043442512696        1.31177832794717        2.21194499540821
N            3.30307475305914       -0.34269073424532        2.20506923743210
H            3.84882077118558       -0.36949042813762        3.04416308906927
H            2.58424029330335       -1.05710337789195        2.06456791869377
C           -1.74361454473011        3.07320793120958       -4.46475209201420
O           -1.35592398995042        2.52220542654817       -3.44360691808794
N           -1.26875228542418        4.29111621797806       -4.85368600279157
H           -0.67355934211560        4.79413768836150       -4.23631816753583
H           -1.60958288292062        4.74439217785149       -5.68032598638881
N           -2.67644836803666        2.50405887399738       -5.28207683765819
H           -2.97739441299674        2.94607703105688       -6.12217855953737
H           -2.96571009372274        1.56824213697115       -5.09018380872694
C           -2.09611331846180       -2.56626762258732        2.41522282894701
O           -2.09526028323083       -1.73330912758322        1.51204349617658
N           -3.23161234039895       -2.87809628220635        3.08664132655974
H           -4.10020724774371       -2.47854012176956        2.76996760591557
H           -3.27180638020056       -3.61917419560015        3.75925547870608
N           -0.97825205798881       -3.22927390415462        2.78367492142580
H           -0.97172388313946       -3.76055668128619        3.63762747984791
H           -0.08655563669376       -2.88023686088919        2.43755228675686
C            1.57407251238850       -2.82916315163417        0.44247726284903
O            1.41341253324844       -2.33975062372497        1.56438878872587
N            2.11153995178697       -2.12449503133814       -0.56885255169376
H            2.48369239451066       -1.19928735094006       -0.37169758840444
H            2.36917101855945       -2.57755664023255       -1.42830384823700
N            1.18550253862465       -4.09514429662952        0.16805203405978
H            1.25296611891128       -4.49422883094643       -0.74791280355083
H            0.69882796399151       -4.62017102769919        0.88108969370472
