 xtb: 6.6.1 (unknown-commit)
          01102415403D

 53 48  0     0  0            999 V2000
   -2.0560    0.9496    2.1797 O   0  0  0  0  0  0  0  0  0  0  0  0
   -0.6691    1.0793    2.0590 C   0  0  0  0  0  0  0  0  0  0  0  0
   -0.4463    2.1444    2.1578 H   0  0  0  0  0  0  0  0  0  0  0  0
   -0.1570    0.5550    2.8797 H   0  0  0  0  0  0  0  0  0  0  0  0
   -0.1054    0.4829    0.7650 C   0  0  0  0  0  0  0  0  0  0  0  0
   -0.4318   -0.5599    0.7284 H   0  0  0  0  0  0  0  0  0  0  0  0
    0.9834    0.5140    0.8037 H   0  0  0  0  0  0  0  0  0  0  0  0
   -0.5269    1.1335   -0.5026 N   0  0  0  0  0  0  0  0  0  0  0  0
   -1.9792    1.0149   -0.7093 C   0  0  0  0  0  0  0  0  0  0  0  0
   -2.2699   -0.0330   -0.6698 H   0  0  0  0  0  0  0  0  0  0  0  0
   -2.2271    1.4399   -1.6804 H   0  0  0  0  0  0  0  0  0  0  0  0
   -2.5109    1.5465    0.0767 H   0  0  0  0  0  0  0  0  0  0  0  0
    0.1653    0.4569   -1.6127 C   0  0  0  0  0  0  0  0  0  0  0  0
   -0.1019   -0.5970   -1.6244 H   0  0  0  0  0  0  0  0  0  0  0  0
    1.2416    0.5495   -1.4821 H   0  0  0  0  0  0  0  0  0  0  0  0
   -0.1366    0.9235   -2.5491 H   0  0  0  0  0  0  0  0  0  0  0  0
   -0.1489    2.5537   -0.5339 C   0  0  0  0  0  0  0  0  0  0  0  0
    0.9208    2.6497   -0.3585 H   0  0  0  0  0  0  0  0  0  0  0  0
   -0.6959    3.1086    0.2235 H   0  0  0  0  0  0  0  0  0  0  0  0
   -0.4000    2.9519   -1.5168 H   0  0  0  0  0  0  0  0  0  0  0  0
   -2.2744    0.0094    2.0250 H   0  0  0  0  0  0  0  0  0  0  0  0
    3.6350    0.4565    1.1753 C   0  0  0  0  0  0  0  0  0  0  0  0
    3.0121    0.4405    0.1091 O   0  0  0  0  0  0  0  0  0  0  0  0
    4.6466    1.3318    1.3804 N   0  0  0  0  0  0  0  0  0  0  0  0
    4.9478    1.9036    0.6118 H   0  0  0  0  0  0  0  0  0  0  0  0
    5.2124    1.3091    2.2087 H   0  0  0  0  0  0  0  0  0  0  0  0
    3.3064   -0.3483    2.1994 N   0  0  0  0  0  0  0  0  0  0  0  0
    3.8502   -0.3711    3.0423 H   0  0  0  0  0  0  0  0  0  0  0  0
    2.5846   -1.0582    2.0637 H   0  0  0  0  0  0  0  0  0  0  0  0
   -1.7433    3.0743   -4.4647 C   0  0  0  0  0  0  0  0  0  0  0  0
   -1.3551    2.5274   -3.4416 O   0  0  0  0  0  0  0  0  0  0  0  0
   -1.4005    4.3462   -4.7792 N   0  0  0  0  0  0  0  0  0  0  0  0
   -0.7347    4.8242   -4.1993 H   0  0  0  0  0  0  0  0  0  0  0  0
   -1.6435    4.7613   -5.6597 H   0  0  0  0  0  0  0  0  0  0  0  0
   -2.5443    2.4466   -5.3590 N   0  0  0  0  0  0  0  0  0  0  0  0
   -2.9438    2.9265   -6.1444 H   0  0  0  0  0  0  0  0  0  0  0  0
   -2.9049    1.5386   -5.1271 H   0  0  0  0  0  0  0  0  0  0  0  0
   -2.0983   -2.5600    2.4202 C   0  0  0  0  0  0  0  0  0  0  0  0
   -2.0970   -1.7271    1.5169 O   0  0  0  0  0  0  0  0  0  0  0  0
   -3.2338   -2.8681    3.0937 N   0  0  0  0  0  0  0  0  0  0  0  0
   -4.1007   -2.4755    2.7720 H   0  0  0  0  0  0  0  0  0  0  0  0
   -3.2726   -3.6163    3.7614 H   0  0  0  0  0  0  0  0  0  0  0  0
   -0.9816   -3.2245    2.7884 N   0  0  0  0  0  0  0  0  0  0  0  0
   -0.9726   -3.7590    3.6391 H   0  0  0  0  0  0  0  0  0  0  0  0
   -0.0874   -2.8796    2.4384 H   0  0  0  0  0  0  0  0  0  0  0  0
    1.5685   -2.8325    0.4433 C   0  0  0  0  0  0  0  0  0  0  0  0
    1.4102   -2.3416    1.5649 O   0  0  0  0  0  0  0  0  0  0  0  0
    2.1046   -2.1304   -0.5701 N   0  0  0  0  0  0  0  0  0  0  0  0
    2.4825   -1.2010   -0.3725 H   0  0  0  0  0  0  0  0  0  0  0  0
    2.3668   -2.5796   -1.4285 H   0  0  0  0  0  0  0  0  0  0  0  0
    1.1769   -4.0985    0.1715 N   0  0  0  0  0  0  0  0  0  0  0  0
    1.2500   -4.4955   -0.7469 H   0  0  0  0  0  0  0  0  0  0  0  0
    0.6966   -4.6206    0.8825 H   0  0  0  0  0  0  0  0  0  0  0  0
  1  2  1  0  0  0  0
  2  3  1  0  0  0  0
  2  4  1  0  0  0  0
  2  5  1  0  0  0  0
  5  6  1  0  0  0  0
  5  7  1  0  0  0  0
  5  8  1  0  0  0  0
  8  9  1  0  0  0  0
  9 10  1  0  0  0  0
  9 11  1  0  0  0  0
  9 12  1  0  0  0  0
  8 13  1  0  0  0  0
 13 14  1  0  0  0  0
 13 15  1  0  0  0  0
 13 16  1  0  0  0  0
  8 17  1  0  0  0  0
 17 18  1  0  0  0  0
 17 19  1  0  0  0  0
 17 20  1  0  0  0  0
  1 21  1  0  0  0  0
 22 23  4  0  0  0  0
 22 24  4  0  0  0  0
 24 25  1  0  0  0  0
 24 26  1  0  0  0  0
 22 27  4  0  0  0  0
 27 28  1  0  0  0  0
 27 29  1  0  0  0  0
 30 31  2  0  0  0  0
 30 32  4  0  0  0  0
 32 33  1  0  0  0  0
 32 34  1  0  0  0  0
 30 35  4  0  0  0  0
 35 36  1  0  0  0  0
 35 37  1  0  0  0  0
 38 39  2  0  0  0  0
 38 40  4  0  0  0  0
 40 41  1  0  0  0  0
 40 42  1  0  0  0  0
 38 43  4  0  0  0  0
 43 44  1  0  0  0  0
 43 45  1  0  0  0  0
 46 47  4  0  0  0  0
 46 48  4  0  0  0  0
 48 49  1  0  0  0  0
 48 50  1  0  0  0  0
 46 51  4  0  0  0  0
 51 52  1  0  0  0  0
 51 53  1  0  0  0  0
M  CHG  1   1   1
M  END
