 xtb: 6.6.1 (unknown-commit)
          01102415373D

 53 48  0     0  0            999 V2000
   -2.3560   -1.1232    0.2499 O   0  0  0  0  0  0  0  0  0  0  0  0
   -1.7360   -0.3652   -0.7605 C   0  0  0  0  0  0  0  0  0  0  0  0
   -1.0538   -0.9918   -1.3493 H   0  0  0  0  0  0  0  0  0  0  0  0
   -2.5322   -0.0203   -1.4228 H   0  0  0  0  0  0  0  0  0  0  0  0
   -0.8816    0.7877   -0.2341 C   0  0  0  0  0  0  0  0  0  0  0  0
   -0.2655    1.1579   -1.0565 H   0  0  0  0  0  0  0  0  0  0  0  0
   -0.2414    0.4080    0.5656 H   0  0  0  0  0  0  0  0  0  0  0  0
   -1.6009    1.9653    0.3227 N   0  0  0  0  0  0  0  0  0  0  0  0
   -2.4514    2.5932   -0.6982 C   0  0  0  0  0  0  0  0  0  0  0  0
   -1.8414    2.8000   -1.5778 H   0  0  0  0  0  0  0  0  0  0  0  0
   -2.8606    3.5262   -0.3151 H   0  0  0  0  0  0  0  0  0  0  0  0
   -3.2758    1.9375   -0.9658 H   0  0  0  0  0  0  0  0  0  0  0  0
   -0.5680    2.9326    0.7327 C   0  0  0  0  0  0  0  0  0  0  0  0
    0.0115    3.2205   -0.1427 H   0  0  0  0  0  0  0  0  0  0  0  0
    0.0833    2.4648    1.4691 H   0  0  0  0  0  0  0  0  0  0  0  0
   -1.0339    3.8143    1.1682 H   0  0  0  0  0  0  0  0  0  0  0  0
   -2.3944    1.5722    1.4955 C   0  0  0  0  0  0  0  0  0  0  0  0
   -1.7183    1.1800    2.2540 H   0  0  0  0  0  0  0  0  0  0  0  0
   -3.1044    0.7944    1.2226 H   0  0  0  0  0  0  0  0  0  0  0  0
   -2.9282    2.4327    1.8939 H   0  0  0  0  0  0  0  0  0  0  0  0
   -1.6424   -1.5629    0.7567 H   0  0  0  0  0  0  0  0  0  0  0  0
    2.0844   -0.4144   -0.7622 C   0  0  0  0  0  0  0  0  0  0  0  0
    1.3698   -0.7447   -1.7036 O   0  0  0  0  0  0  0  0  0  0  0  0
    2.0805   -1.0786    0.4187 N   0  0  0  0  0  0  0  0  0  0  0  0
    1.2944   -1.6971    0.5883 H   0  0  0  0  0  0  0  0  0  0  0  0
    2.4628   -0.6293    1.2330 H   0  0  0  0  0  0  0  0  0  0  0  0
    2.9352    0.6392   -0.8449 N   0  0  0  0  0  0  0  0  0  0  0  0
    3.6031    0.8321   -0.1214 H   0  0  0  0  0  0  0  0  0  0  0  0
    3.0523    1.0920   -1.7343 H   0  0  0  0  0  0  0  0  0  0  0  0
    0.6554    2.3579   -3.5034 C   0  0  0  0  0  0  0  0  0  0  0  0
    0.1659    2.6426   -2.4143 O   0  0  0  0  0  0  0  0  0  0  0  0
    1.3235    1.2063   -3.7242 N   0  0  0  0  0  0  0  0  0  0  0  0
    1.2688    0.4544   -3.0305 H   0  0  0  0  0  0  0  0  0  0  0  0
    1.5630    0.9418   -4.6635 H   0  0  0  0  0  0  0  0  0  0  0  0
    0.5580    3.2053   -4.5628 N   0  0  0  0  0  0  0  0  0  0  0  0
    1.0771    3.0506   -5.4081 H   0  0  0  0  0  0  0  0  0  0  0  0
    0.2081    4.1320   -4.3948 H   0  0  0  0  0  0  0  0  0  0  0  0
   -0.4146   -3.7197    0.3239 C   0  0  0  0  0  0  0  0  0  0  0  0
   -0.2422   -2.7003    1.0039 O   0  0  0  0  0  0  0  0  0  0  0  0
    0.5607   -4.6389    0.1801 N   0  0  0  0  0  0  0  0  0  0  0  0
    1.4692   -4.4481    0.5642 H   0  0  0  0  0  0  0  0  0  0  0  0
    0.4586   -5.4322   -0.4259 H   0  0  0  0  0  0  0  0  0  0  0  0
   -1.5879   -3.9700   -0.2803 N   0  0  0  0  0  0  0  0  0  0  0  0
   -1.7337   -4.7836   -0.8489 H   0  0  0  0  0  0  0  0  0  0  0  0
   -2.3205   -3.2789   -0.2151 H   0  0  0  0  0  0  0  0  0  0  0  0
    0.5846   -0.1644    3.6308 C   0  0  0  0  0  0  0  0  0  0  0  0
    0.4131    0.5617    2.6579 O   0  0  0  0  0  0  0  0  0  0  0  0
    0.7922    0.3472    4.8716 N   0  0  0  0  0  0  0  0  0  0  0  0
    0.9284    1.3381    4.9634 H   0  0  0  0  0  0  0  0  0  0  0  0
    1.0494   -0.2345    5.6480 H   0  0  0  0  0  0  0  0  0  0  0  0
    0.5878   -1.5127    3.5398 N   0  0  0  0  0  0  0  0  0  0  0  0
    0.5829   -2.0802    4.3681 H   0  0  0  0  0  0  0  0  0  0  0  0
    0.2794   -1.9424    2.6772 H   0  0  0  0  0  0  0  0  0  0  0  0
  1  2  1  0  0  0  0
  2  3  1  0  0  0  0
  2  4  1  0  0  0  0
  2  5  1  0  0  0  0
  5  6  1  0  0  0  0
  5  7  1  0  0  0  0
  5  8  1  0  0  0  0
  8  9  1  0  0  0  0
  9 10  1  0  0  0  0
  9 11  1  0  0  0  0
  9 12  1  0  0  0  0
  8 13  1  0  0  0  0
 13 14  1  0  0  0  0
 13 15  1  0  0  0  0
 13 16  1  0  0  0  0
  8 17  1  0  0  0  0
 17 18  1  0  0  0  0
 17 19  1  0  0  0  0
 17 20  1  0  0  0  0
  1 21  1  0  0  0  0
 22 23  2  0  0  0  0
 22 24  4  0  0  0  0
 24 25  1  0  0  0  0
 24 26  1  0  0  0  0
 22 27  4  0  0  0  0
 27 28  1  0  0  0  0
 27 29  1  0  0  0  0
 30 31  2  0  0  0  0
 30 32  4  0  0  0  0
 32 33  1  0  0  0  0
 32 34  1  0  0  0  0
 30 35  1  0  0  0  0
 35 36  1  0  0  0  0
 35 37  1  0  0  0  0
 38 39  4  0  0  0  0
 38 40  4  0  0  0  0
 40 41  1  0  0  0  0
 40 42  1  0  0  0  0
 38 43  4  0  0  0  0
 43 44  1  0  0  0  0
 43 45  1  0  0  0  0
 46 47  2  0  0  0  0
 46 48  1  0  0  0  0
 48 49  1  0  0  0  0
 48 50  1  0  0  0  0
 46 51  4  0  0  0  0
 51 52  1  0  0  0  0
 51 53  1  0  0  0  0
M  CHG  1   1   1
M  END
