 xtb: 6.6.1 (unknown-commit)
          01102418313D

 53 48  0     0  0            999 V2000
   -1.6471   -1.4268    2.2951 O   0  0  0  0  0  0  0  0  0  0  0  0
   -0.6141   -1.8853    1.4722 C   0  0  0  0  0  0  0  0  0  0  0  0
    0.1547   -2.2905    2.1348 H   0  0  0  0  0  0  0  0  0  0  0  0
   -0.9649   -2.7068    0.8294 H   0  0  0  0  0  0  0  0  0  0  0  0
   -0.0606   -0.8174    0.5228 C   0  0  0  0  0  0  0  0  0  0  0  0
   -0.9056   -0.4389   -0.0587 H   0  0  0  0  0  0  0  0  0  0  0  0
    0.6575   -1.2805   -0.1538 H   0  0  0  0  0  0  0  0  0  0  0  0
    0.6079    0.3486    1.1566 N   0  0  0  0  0  0  0  0  0  0  0  0
   -0.3344    1.1253    1.9787 C   0  0  0  0  0  0  0  0  0  0  0  0
   -1.1967    1.4081    1.3782 H   0  0  0  0  0  0  0  0  0  0  0  0
    0.1773    2.0118    2.3493 H   0  0  0  0  0  0  0  0  0  0  0  0
   -0.6835    0.5216    2.8133 H   0  0  0  0  0  0  0  0  0  0  0  0
    1.1226    1.2155    0.0831 C   0  0  0  0  0  0  0  0  0  0  0  0
    0.2994    1.5534   -0.5418 H   0  0  0  0  0  0  0  0  0  0  0  0
    1.8282    0.6585   -0.5303 H   0  0  0  0  0  0  0  0  0  0  0  0
    1.6191    2.0731    0.5343 H   0  0  0  0  0  0  0  0  0  0  0  0
    1.7467   -0.0650    1.9888 C   0  0  0  0  0  0  0  0  0  0  0  0
    2.4373   -0.6592    1.3937 H   0  0  0  0  0  0  0  0  0  0  0  0
    1.4026   -0.6466    2.8399 H   0  0  0  0  0  0  0  0  0  0  0  0
    2.2482    0.8325    2.3501 H   0  0  0  0  0  0  0  0  0  0  0  0
   -2.3034   -0.9847    1.7207 H   0  0  0  0  0  0  0  0  0  0  0  0
    2.0605   -2.6123   -1.9870 C   0  0  0  0  0  0  0  0  0  0  0  0
    2.1703   -1.4226   -1.6750 O   0  0  0  0  0  0  0  0  0  0  0  0
    3.1357   -3.4335   -2.0002 N   0  0  0  0  0  0  0  0  0  0  0  0
    4.0438   -3.0363   -1.8387 H   0  0  0  0  0  0  0  0  0  0  0  0
    3.0790   -4.3841   -2.3160 H   0  0  0  0  0  0  0  0  0  0  0  0
    0.8680   -3.1625   -2.2713 N   0  0  0  0  0  0  0  0  0  0  0  0
    0.7924   -4.1122   -2.5861 H   0  0  0  0  0  0  0  0  0  0  0  0
    0.0448   -2.5610   -2.3328 H   0  0  0  0  0  0  0  0  0  0  0  0
    2.6804    3.9699    3.0330 C   0  0  0  0  0  0  0  0  0  0  0  0
    2.1797    3.0179    2.4504 O   0  0  0  0  0  0  0  0  0  0  0  0
    2.1477    5.2137    2.9724 N   0  0  0  0  0  0  0  0  0  0  0  0
    1.3615    5.3729    2.3689 H   0  0  0  0  0  0  0  0  0  0  0  0
    2.6002    6.0099    3.3820 H   0  0  0  0  0  0  0  0  0  0  0  0
    3.8019    3.8505    3.7823 N   0  0  0  0  0  0  0  0  0  0  0  0
    4.1651    4.6118    4.3254 H   0  0  0  0  0  0  0  0  0  0  0  0
    4.1948    2.9377    3.9242 H   0  0  0  0  0  0  0  0  0  0  0  0
   -0.9031   -0.2659   -3.1331 C   0  0  0  0  0  0  0  0  0  0  0  0
   -1.2428   -1.3080   -2.5653 O   0  0  0  0  0  0  0  0  0  0  0  0
    0.3496    0.2136   -3.0469 N   0  0  0  0  0  0  0  0  0  0  0  0
    1.0594   -0.3560   -2.5800 H   0  0  0  0  0  0  0  0  0  0  0  0
    0.6536    0.9755   -3.6253 H   0  0  0  0  0  0  0  0  0  0  0  0
   -1.7926    0.4680   -3.8403 N   0  0  0  0  0  0  0  0  0  0  0  0
   -1.5403    1.3273   -4.2920 H   0  0  0  0  0  0  0  0  0  0  0  0
   -2.7500    0.1679   -3.8786 H   0  0  0  0  0  0  0  0  0  0  0  0
   -3.9770   -0.7315   -0.2692 C   0  0  0  0  0  0  0  0  0  0  0  0
   -3.0410   -0.1584    0.2836 O   0  0  0  0  0  0  0  0  0  0  0  0
   -5.1854   -0.8516    0.3339 N   0  0  0  0  0  0  0  0  0  0  0  0
   -5.3347   -0.3688    1.2021 H   0  0  0  0  0  0  0  0  0  0  0  0
   -5.9866   -1.2193   -0.1456 H   0  0  0  0  0  0  0  0  0  0  0  0
   -3.8651   -1.2638   -1.5050 N   0  0  0  0  0  0  0  0  0  0  0  0
   -4.5814   -1.8747   -1.8557 H   0  0  0  0  0  0  0  0  0  0  0  0
   -2.9273   -1.3629   -1.8943 H   0  0  0  0  0  0  0  0  0  0  0  0
  1  2  1  0  0  0  0
  2  3  1  0  0  0  0
  2  4  1  0  0  0  0
  2  5  1  0  0  0  0
  5  6  1  0  0  0  0
  5  7  1  0  0  0  0
  5  8  1  0  0  0  0
  8  9  1  0  0  0  0
  9 10  1  0  0  0  0
  9 11  1  0  0  0  0
  9 12  1  0  0  0  0
  8 13  1  0  0  0  0
 13 14  1  0  0  0  0
 13 15  1  0  0  0  0
 13 16  1  0  0  0  0
  8 17  1  0  0  0  0
 17 18  1  0  0  0  0
 17 19  1  0  0  0  0
 17 20  1  0  0  0  0
  1 21  1  0  0  0  0
 22 23  4  0  0  0  0
 22 24  4  0  0  0  0
 24 25  1  0  0  0  0
 24 26  1  0  0  0  0
 22 27  4  0  0  0  0
 27 28  1  0  0  0  0
 27 29  1  0  0  0  0
 30 31  2  0  0  0  0
 30 32  4  0  0  0  0
 32 33  1  0  0  0  0
 32 34  1  0  0  0  0
 30 35  4  0  0  0  0
 35 36  1  0  0  0  0
 35 37  1  0  0  0  0
 38 39  4  0  0  0  0
 38 40  4  0  0  0  0
 40 41  1  0  0  0  0
 40 42  1  0  0  0  0
 38 43  4  0  0  0  0
 43 44  1  0  0  0  0
 43 45  1  0  0  0  0
 46 47  2  0  0  0  0
 46 48  4  0  0  0  0
 48 49  1  0  0  0  0
 48 50  1  0  0  0  0
 46 51  4  0  0  0  0
 51 52  1  0  0  0  0
 51 53  1  0  0  0  0
M  CHG  1   1   1
M  END
