  53

 O          0.7886593982       -0.0860270582        3.6358317652
 C          0.4105379073       -1.1810836147        2.8123026034
 H          0.8228210377       -2.1133003904        3.2181117226
 H         -0.6814117674       -1.2733184111        2.7811313416
 C          0.8298478060       -0.9489741658        1.3686636288
 H          0.4547366186        0.0250299505        1.0515264308
 H          0.3573394106       -1.7191655256        0.7566419339
 N          2.2831814301       -0.9664653322        1.0509748997
 C          2.9802740563        0.1286502121        1.7414795414
 H          2.5305208420        1.0722979102        1.4331305901
 H          4.0360219153        0.1264432159        1.4779043214
 H          2.8752295140        0.0245555361        2.8181480801
 C          2.3981468394       -0.7559522151       -0.4038401961
 H          1.9222737308        0.1869292217       -0.6633389094
 H          1.8953804626       -1.5676568652       -0.9260367074
 H          3.4466084447       -0.7282186740       -0.6927019090
 C          2.8803392252       -2.2649444093        1.3894457903
 H          2.8715944833       -2.4227480260        2.4651537573
 H          3.9119713710       -2.3015106659        1.0437957803
 H          2.3130729717       -3.0549493058        0.8993363268
 H          0.3492624846       -0.1686804036        4.4882446208
 C         -0.5869996019       -3.8801170814       -0.6621513544
 O          0.2951349219       -3.0319622427       -0.8380316830
 N         -1.7137377270       -3.6015886557        0.0062985383
 H         -1.9084392762       -2.6308092425        0.2853706865
 H         -2.4479022455       -4.2803636167        0.0924306083
 N         -0.4172340893       -5.1583565560       -1.0835393009
 H         -1.1662869976       -5.8258117314       -1.0536112915
 H          0.3770988915       -5.3686272067       -1.6612585022
 C         -0.1086959105        2.6194083704        1.0445801259
 O          0.6863157122        1.9525201117        0.3684680949
 N         -0.1249443236        2.5124135343        2.3922968460
 H          0.4090986613        1.7827828468        2.8413088987
 H         -0.7977551983        3.0136186800        2.9427253814
 N         -0.9526415021        3.5038496008        0.4913564138
 H         -1.6326165269        3.9819302491        1.0545663794
 H         -1.1206783451        3.4627505189       -0.5139663953
 C         -0.4516287830        2.9008443492       -2.9093381973
 O         -1.4733887330        2.9941370221       -2.2278644228
 N          0.6796010160        2.3519428473       -2.4147326810
 H          0.7215732227        2.2091536352       -1.4002912298
 H          1.5459203985        2.4476811955       -2.9139493267
 N         -0.4359019248        3.2831591045       -4.2051114251
 H          0.3906765611        3.2453127501       -4.7723002083
 H         -1.2715854447        3.6809773738       -4.5954267862
 C         -1.9469598959       -0.1671451543       -0.3727633319
 O         -2.1389215939       -0.9373190975        0.5716967088
 N         -0.9908991336       -0.4039398701       -1.3017122016
 H         -0.5351060918       -1.3075481204       -1.3082762742
 H         -0.9216827331        0.1822137818       -2.1128571680
 N         -2.6511231646        0.9693278248       -0.5281532188
 H         -2.4012421267        1.6636365058       -1.2204705696
 H         -3.3431538053        1.1967159130        0.1623783411
