  53

 O          0.6668708801        1.5706065186       -0.0006804165
 C         -0.1554238862        2.0881500769        1.0001560900
 H          0.3002721443        1.9472142151        1.9908430358
 H         -0.2299056568        3.1649523850        0.8223316268
 C         -1.5468710468        1.4400820453        1.0764632933
 H         -2.0782943487        1.8950406611        1.9146733159
 H         -1.4400954052        0.3667900495        1.2641373934
 N         -2.3974754341        1.5715218099       -0.1366096923
 C         -3.7490604982        1.0878967375        0.1949524859
 H         -3.6779461204        0.0574305806        0.5389476585
 H         -4.3660339712        1.1411820221       -0.7002676115
 H         -4.1911065640        1.7048252724        0.9744297541
 C         -1.8739589450        0.7291170827       -1.2263537335
 H         -0.8605795453        1.0357032742       -1.4740126846
 H         -2.5237851330        0.8406782415       -2.0918456340
 H         -1.8689493791       -0.3066813786       -0.8917411062
 C         -2.4894960493        2.9604313624       -0.6084715558
 H         -1.5231843451        3.2957044171       -0.9765331363
 H         -2.8191500558        3.6120100140        0.1987100977
 H         -3.2103686711        2.9951622827       -1.4250552900
 H          0.8679942728        0.6275900389        0.2359682413
 C          7.1417650351       -1.0086523412        1.5945298439
 O          5.9207453079       -0.9935441575        1.5194457244
 N          7.9259554530       -0.3004845354        0.7457391263
 H          7.4924339104        0.1494153012       -0.0408525605
 H          8.9234294485       -0.4109314166        0.7314884393
 N          7.7981996074       -1.7353066858        2.5312541790
 H          8.7880980034       -1.6461770521        2.6712509026
 H          7.2591054164       -2.1709107643        3.2584247751
 C         -5.1765806641        1.8448863995       -3.7727690308
 O         -4.4576372029        1.8691305202       -2.7842870956
 N         -5.7527260490        2.9627676231       -4.2765512110
 H         -5.5046635653        3.8512108222       -3.8798123363
 H         -6.2561668630        2.9575465900       -5.1444766753
 N         -5.4489949179        0.6957680000       -4.4383695470
 H         -6.1236643652        0.6584514703       -5.1801661183
 H         -5.1310615532       -0.1719258375       -4.0452632674
 C         -1.8553503977       -2.6773530732        1.1239234188
 O         -2.3112955175       -1.5665568427        0.8789647919
 N         -0.5431807081       -2.8932723785        1.3402775760
 H          0.1175558250       -2.1358047942        1.1613355545
 H         -0.1890311850       -3.8316712001        1.3871420313
 N         -2.6603624381       -3.7759789066        1.1830063723
 H         -2.3265398865       -4.6441397684        1.5614410903
 H         -3.6536164160       -3.6237652915        1.1899799999
 C          2.5765960122       -0.9038096421        1.0296836388
 O          1.3467374390       -0.8550278487        0.8699809310
 N          3.3915153380        0.0848651616        0.6308037017
 H          3.0068315684        0.9041748234        0.1935443626
 H          4.3829803613       -0.0002617970        0.8021076357
 N          3.1882886253       -1.9557007113        1.6031352783
 H          4.1874496289       -1.9218117465        1.7413562729
 H          2.6460194077       -2.7078657488        1.9850816721
