 xtb: 6.6.1 (unknown-commit)
          01102415403D

 53 48  0     0  0            999 V2000
    0.6669    1.5706   -0.0007 O   0  0  0  0  0  0  0  0  0  0  0  0
   -0.1554    2.0882    1.0002 C   0  0  0  0  0  0  0  0  0  0  0  0
    0.3003    1.9472    1.9908 H   0  0  0  0  0  0  0  0  0  0  0  0
   -0.2299    3.1650    0.8223 H   0  0  0  0  0  0  0  0  0  0  0  0
   -1.5469    1.4401    1.0765 C   0  0  0  0  0  0  0  0  0  0  0  0
   -2.0783    1.8951    1.9147 H   0  0  0  0  0  0  0  0  0  0  0  0
   -1.4401    0.3668    1.2641 H   0  0  0  0  0  0  0  0  0  0  0  0
   -2.3975    1.5715   -0.1366 N   0  0  0  0  0  0  0  0  0  0  0  0
   -3.7491    1.0879    0.1950 C   0  0  0  0  0  0  0  0  0  0  0  0
   -3.6779    0.0575    0.5390 H   0  0  0  0  0  0  0  0  0  0  0  0
   -4.3660    1.1412   -0.7003 H   0  0  0  0  0  0  0  0  0  0  0  0
   -4.1911    1.7048    0.9744 H   0  0  0  0  0  0  0  0  0  0  0  0
   -1.8740    0.7291   -1.2263 C   0  0  0  0  0  0  0  0  0  0  0  0
   -0.8606    1.0357   -1.4740 H   0  0  0  0  0  0  0  0  0  0  0  0
   -2.5238    0.8407   -2.0918 H   0  0  0  0  0  0  0  0  0  0  0  0
   -1.8690   -0.3067   -0.8917 H   0  0  0  0  0  0  0  0  0  0  0  0
   -2.4895    2.9604   -0.6085 C   0  0  0  0  0  0  0  0  0  0  0  0
   -1.5232    3.2957   -0.9765 H   0  0  0  0  0  0  0  0  0  0  0  0
   -2.8191    3.6120    0.1987 H   0  0  0  0  0  0  0  0  0  0  0  0
   -3.2104    2.9952   -1.4250 H   0  0  0  0  0  0  0  0  0  0  0  0
    0.8680    0.6276    0.2360 H   0  0  0  0  0  0  0  0  0  0  0  0
    7.1418   -1.0087    1.5945 C   0  0  0  0  0  0  0  0  0  0  0  0
    5.9207   -0.9936    1.5194 O   0  0  0  0  0  0  0  0  0  0  0  0
    7.9260   -0.3005    0.7457 N   0  0  0  0  0  0  0  0  0  0  0  0
    7.4924    0.1494   -0.0409 H   0  0  0  0  0  0  0  0  0  0  0  0
    8.9234   -0.4110    0.7315 H   0  0  0  0  0  0  0  0  0  0  0  0
    7.7982   -1.7353    2.5312 N   0  0  0  0  0  0  0  0  0  0  0  0
    8.7881   -1.6462    2.6712 H   0  0  0  0  0  0  0  0  0  0  0  0
    7.2591   -2.1709    3.2584 H   0  0  0  0  0  0  0  0  0  0  0  0
   -5.1766    1.8449   -3.7728 C   0  0  0  0  0  0  0  0  0  0  0  0
   -4.4576    1.8691   -2.7843 O   0  0  0  0  0  0  0  0  0  0  0  0
   -5.7527    2.9628   -4.2765 N   0  0  0  0  0  0  0  0  0  0  0  0
   -5.5047    3.8512   -3.8798 H   0  0  0  0  0  0  0  0  0  0  0  0
   -6.2562    2.9576   -5.1445 H   0  0  0  0  0  0  0  0  0  0  0  0
   -5.4490    0.6958   -4.4384 N   0  0  0  0  0  0  0  0  0  0  0  0
   -6.1237    0.6585   -5.1801 H   0  0  0  0  0  0  0  0  0  0  0  0
   -5.1311   -0.1719   -4.0452 H   0  0  0  0  0  0  0  0  0  0  0  0
   -1.8554   -2.6773    1.1239 C   0  0  0  0  0  0  0  0  0  0  0  0
   -2.3113   -1.5665    0.8790 O   0  0  0  0  0  0  0  0  0  0  0  0
   -0.5432   -2.8933    1.3403 N   0  0  0  0  0  0  0  0  0  0  0  0
    0.1175   -2.1358    1.1613 H   0  0  0  0  0  0  0  0  0  0  0  0
   -0.1890   -3.8317    1.3871 H   0  0  0  0  0  0  0  0  0  0  0  0
   -2.6604   -3.7760    1.1830 N   0  0  0  0  0  0  0  0  0  0  0  0
   -2.3266   -4.6441    1.5615 H   0  0  0  0  0  0  0  0  0  0  0  0
   -3.6536   -3.6237    1.1900 H   0  0  0  0  0  0  0  0  0  0  0  0
    2.5766   -0.9038    1.0297 C   0  0  0  0  0  0  0  0  0  0  0  0
    1.3467   -0.8550    0.8700 O   0  0  0  0  0  0  0  0  0  0  0  0
    3.3915    0.0848    0.6308 N   0  0  0  0  0  0  0  0  0  0  0  0
    3.0068    0.9042    0.1935 H   0  0  0  0  0  0  0  0  0  0  0  0
    4.3830   -0.0003    0.8021 H   0  0  0  0  0  0  0  0  0  0  0  0
    3.1883   -1.9557    1.6031 N   0  0  0  0  0  0  0  0  0  0  0  0
    4.1874   -1.9218    1.7413 H   0  0  0  0  0  0  0  0  0  0  0  0
    2.6460   -2.7079    1.9851 H   0  0  0  0  0  0  0  0  0  0  0  0
  1  2  1  0  0  0  0
  2  3  1  0  0  0  0
  2  4  1  0  0  0  0
  2  5  1  0  0  0  0
  5  6  1  0  0  0  0
  5  7  1  0  0  0  0
  5  8  1  0  0  0  0
  8  9  1  0  0  0  0
  9 10  1  0  0  0  0
  9 11  1  0  0  0  0
  9 12  1  0  0  0  0
  8 13  1  0  0  0  0
 13 14  1  0  0  0  0
 13 15  1  0  0  0  0
 13 16  1  0  0  0  0
  8 17  1  0  0  0  0
 17 18  1  0  0  0  0
 17 19  1  0  0  0  0
 17 20  1  0  0  0  0
  1 21  1  0  0  0  0
 22 23  2  0  0  0  0
 22 24  4  0  0  0  0
 24 25  1  0  0  0  0
 24 26  1  0  0  0  0
 22 27  4  0  0  0  0
 27 28  1  0  0  0  0
 27 29  1  0  0  0  0
 30 31  2  0  0  0  0
 30 32  4  0  0  0  0
 32 33  1  0  0  0  0
 32 34  1  0  0  0  0
 30 35  4  0  0  0  0
 35 36  1  0  0  0  0
 35 37  1  0  0  0  0
 38 39  2  0  0  0  0
 38 40  4  0  0  0  0
 40 41  1  0  0  0  0
 40 42  1  0  0  0  0
 38 43  1  0  0  0  0
 43 44  1  0  0  0  0
 43 45  1  0  0  0  0
 46 47  4  0  0  0  0
 46 48  4  0  0  0  0
 48 49  1  0  0  0  0
 48 50  1  0  0  0  0
 46 51  4  0  0  0  0
 51 52  1  0  0  0  0
 51 53  1  0  0  0  0
M  CHG  1   1   1
M  END
