  53

 O         -0.5845477260        0.4521681279       -1.7218900858
 C          0.6229795885       -0.1915767703       -1.9945902515
 H          0.4252910827       -0.9038550773       -2.7994970430
 H          1.3720620761        0.5227787568       -2.3623920482
 C          1.2470774216       -0.8841993621       -0.7706505893
 H          1.2960121443       -0.1642445834        0.0499061765
 H          2.2616732396       -1.1914420280       -1.0305852067
 N          0.5275751451       -2.0761684287       -0.2491801801
 C         -0.8236473960       -1.7152880241        0.2119221577
 H         -0.7451383395       -0.9824691321        1.0108278329
 H         -1.3123665622       -2.6133592043        0.5851845315
 H         -1.3952512553       -1.2816195752       -0.6052376088
 C          1.2795249970       -2.5941479143        0.9084853579
 H          1.3746598495       -1.8084441587        1.6578010456
 H          2.2713607304       -2.9168359052        0.5995187920
 H          0.7348464955       -3.4416466358        1.3222180890
 C          0.4181966780       -3.1414220952       -1.2571985091
 H          1.4016709245       -3.3923487255       -1.6495074201
 H         -0.2262388845       -2.8266375344       -2.0737312401
 H         -0.0193053341       -4.0186010669       -0.7804524198
 H         -0.3925719371        1.2324390081       -1.1618517170
 C          1.5633154732        2.8026240716       -0.1808753452
 O          0.3475186640        2.5084623778       -0.2004640473
 N          2.4048159602        2.1336748907        0.6393130743
 H          2.0179291454        1.4870629817        1.3225656773
 H          3.3499794008        2.4467256130        0.7667600218
 N          2.0710025135        3.7311938682       -0.9836842822
 H          3.0487353401        3.9574044797       -0.9579207743
 H          1.4738176726        4.2245022127       -1.6718787922
 C         -0.6976993521        4.7821657684       -2.8649709369
 O          0.5152318521        4.9599135510       -2.8292850896
 N         -1.4580170073        5.3052326813       -3.8616864062
 H         -1.0145705379        5.9604073899       -4.4816730820
 H         -2.4600958246        5.3211479346       -3.8030354338
 N         -1.3523102265        4.0619280146       -1.9276418812
 H         -2.3088161670        3.7906587728       -2.0645352813
 H         -0.7973987048        3.5305502521       -1.2621309486
 C          0.0935367203        0.7996219110        2.8784617100
 O          1.0337578245        0.2471439081        2.2999005850
 N         -0.6830041098        1.7019087474        2.2573606627
 H         -0.3985930319        2.0299596014        1.3300027431
 H         -1.3917959683        2.2122682135        2.7513180980
 N         -0.2495955680        0.4562278618        4.1442537314
 H         -0.9289874899        0.9803140517        4.6652213591
 H          0.3674445990       -0.1507073775        4.6544121714
 C         -1.4847307940       -5.8565580263        1.3408606898
 O         -0.9390753403       -4.8247183523        0.9711262855
 N         -2.5985366361       -6.3373032798        0.7399823084
 H         -3.0374948478       -5.7879706699        0.0232917851
 H         -3.0921829523       -7.1367748058        1.0918902109
 N         -1.0135089031       -6.5914609254        2.3753032665
 H         -1.4085791159       -7.4802864106        2.6215639732
 H         -0.1437676934       -6.3260378162        2.8009195524
