  53

 O         -2.6641153002       -0.6644216739       -1.3177387162
 C         -1.6472001337        0.2857748235       -1.4489410500
 H         -1.6216301022        0.5851653196       -2.4992788327
 H         -1.8776273054        1.1816269480       -0.8545182143
 C         -0.2777730920       -0.1975027574       -0.9587448913
 H         -0.3751071066       -0.5024730344        0.0848228112
 H          0.4185694545        0.6364379969       -1.0239777050
 N          0.3190757187       -1.3444813923       -1.6968334223
 C          1.7104400360       -1.4957410744       -1.2382973431
 H          2.2878022900       -0.6217111593       -1.5304289862
 H          2.1524569338       -2.3850423792       -1.6831604333
 H          1.7188122266       -1.5923285108       -0.1523923296
 C          0.3209670489       -1.0981366740       -3.1466002831
 H         -0.6940063371       -1.1272205371       -3.5349818583
 H          0.9079497456       -1.8645147036       -3.6492447852
 H          0.7632224524       -0.1200431504       -3.3415436088
 C         -0.4196480617       -2.5777805885       -1.3843943067
 H         -1.4633214199       -2.4608146438       -1.6709120617
 H         -0.3640467103       -2.7587576596       -0.3120138714
 H          0.0158566862       -3.4201917297       -1.9183318466
 H         -2.6779314762       -0.9129456798       -0.3624522428
 C          2.7184905643        1.6546238589        0.5630226188
 O          1.5079784615        1.8578293286        0.6980773336
 N          3.2846727775        1.5307199323       -0.6507568930
 H          2.7054078250        1.7076725655       -1.4754627739
 H          4.2824281522        1.5120384784       -0.7583960877
 N          3.5310600285        1.5223938112        1.6351678518
 H          4.4991675177        1.2755586194        1.5435023269
 H          3.1206998850        1.5193294891        2.5516576658
 C          0.7670272229        2.8923566503       -2.6299137662
 O          1.4555314464        1.8740021713       -2.7391408923
 N          0.4304181085        3.3945272882       -1.4303688252
 H          0.7436434387        2.9164824306       -0.5858118533
 H         -0.1330075147        4.2196195553       -1.3422186105
 N          0.2780659143        3.5275791233       -3.7215072127
 H         -0.1797920867        4.4181927736       -3.6523459854
 H          0.6082325900        3.2380210149       -4.6252704687
 C         -3.2042956651       -1.7445843744        1.9991987997
 O         -2.3451202944       -1.2428861011        1.2807947627
 N         -4.4595959154       -1.9868758811        1.5514828798
 H         -4.7188222637       -1.6517975127        0.6396865085
 H         -5.1910420136       -2.2956030982        2.1654042132
 N         -2.9422916996       -2.0801863637        3.2805887516
 H         -3.5934091083       -2.6132320138        3.8277056242
 H         -1.9727332254       -2.0324716507        3.5733807017
 C          0.4848694316       -1.0666287084        2.7135018208
 O          0.9048928508       -1.6482773175        1.7291558990
 N         -0.0033320700       -1.7647293095        3.8083156874
 H          0.2832569956       -2.7325571939        3.8344785153
 H          0.0205947569       -1.3000600873        4.7031159025
 N          0.4571193133        0.2752098030        2.8310214494
 H         -0.0791665389        0.7095965427        3.5609248916
 H          0.6858339162        0.8460860756        2.0183429772
