 xtb: 6.6.1 (unknown-commit)
          01102418263D

 53 48  0     0  0            999 V2000
    2.8204   -0.4861   -0.5466 O   0  0  0  0  0  0  0  0  0  0  0  0
    2.7731    0.7343   -1.2220 C   0  0  0  0  0  0  0  0  0  0  0  0
    3.6891    1.2702   -0.9580 H   0  0  0  0  0  0  0  0  0  0  0  0
    2.7827    0.5811   -2.3112 H   0  0  0  0  0  0  0  0  0  0  0  0
    1.5296    1.5880   -0.9249 C   0  0  0  0  0  0  0  0  0  0  0  0
    0.6295    1.0646   -1.2610 H   0  0  0  0  0  0  0  0  0  0  0  0
    1.6286    2.5149   -1.4933 H   0  0  0  0  0  0  0  0  0  0  0  0
    1.2986    1.9392    0.5017 N   0  0  0  0  0  0  0  0  0  0  0  0
    0.8295    0.7615    1.2534 C   0  0  0  0  0  0  0  0  0  0  0  0
   -0.0901    0.4025    0.7949 H   0  0  0  0  0  0  0  0  0  0  0  0
    0.6406    1.0621    2.2821 H   0  0  0  0  0  0  0  0  0  0  0  0
    1.5856   -0.0192    1.2245 H   0  0  0  0  0  0  0  0  0  0  0  0
    0.2325    2.9546    0.5598 C   0  0  0  0  0  0  0  0  0  0  0  0
   -0.6627    2.5517    0.0883 H   0  0  0  0  0  0  0  0  0  0  0  0
    0.5432    3.8608    0.0443 H   0  0  0  0  0  0  0  0  0  0  0  0
    0.0321    3.1835    1.6053 H   0  0  0  0  0  0  0  0  0  0  0  0
    2.5069    2.4707    1.1480 C   0  0  0  0  0  0  0  0  0  0  0  0
    2.8978    3.3142    0.5821 H   0  0  0  0  0  0  0  0  0  0  0  0
    3.2653    1.6947    1.2167 H   0  0  0  0  0  0  0  0  0  0  0  0
    2.2398    2.7978    2.1526 H   0  0  0  0  0  0  0  0  0  0  0  0
    2.0542   -1.0372   -0.8455 H   0  0  0  0  0  0  0  0  0  0  0  0
    1.1833   -2.9924   -2.1203 C   0  0  0  0  0  0  0  0  0  0  0  0
    0.8136   -1.9853   -1.4857 O   0  0  0  0  0  0  0  0  0  0  0  0
    2.4965   -3.2828   -2.2301 N   0  0  0  0  0  0  0  0  0  0  0  0
    3.1654   -2.7104   -1.7426 H   0  0  0  0  0  0  0  0  0  0  0  0
    2.8200   -4.1106   -2.6957 H   0  0  0  0  0  0  0  0  0  0  0  0
    0.3044   -3.7872   -2.7293 N   0  0  0  0  0  0  0  0  0  0  0  0
    0.5950   -4.6137   -3.2187 H   0  0  0  0  0  0  0  0  0  0  0  0
   -0.7017   -3.6040   -2.6153 H   0  0  0  0  0  0  0  0  0  0  0  0
    0.5561    3.2472    4.8307 C   0  0  0  0  0  0  0  0  0  0  0  0
    0.7203    2.8855    3.6735 O   0  0  0  0  0  0  0  0  0  0  0  0
    1.3378    2.8023    5.8431 N   0  0  0  0  0  0  0  0  0  0  0  0
    2.1206    2.2123    5.6259 H   0  0  0  0  0  0  0  0  0  0  0  0
    1.2572    3.1582    6.7775 H   0  0  0  0  0  0  0  0  0  0  0  0
   -0.4190    4.1178    5.1835 N   0  0  0  0  0  0  0  0  0  0  0  0
   -0.5994    4.3607    6.1400 H   0  0  0  0  0  0  0  0  0  0  0  0
   -1.0717    4.4228    4.4845 H   0  0  0  0  0  0  0  0  0  0  0  0
   -2.6457   -2.9011   -1.0690 C   0  0  0  0  0  0  0  0  0  0  0  0
   -2.3517   -3.2193   -2.2181 O   0  0  0  0  0  0  0  0  0  0  0  0
   -1.7229   -2.4867   -0.1740 N   0  0  0  0  0  0  0  0  0  0  0  0
   -0.7919   -2.2710   -0.5183 H   0  0  0  0  0  0  0  0  0  0  0  0
   -2.0057   -2.0734    0.6960 H   0  0  0  0  0  0  0  0  0  0  0  0
   -3.9329   -2.9363   -0.6358 N   0  0  0  0  0  0  0  0  0  0  0  0
   -4.1525   -2.8580    0.3411 H   0  0  0  0  0  0  0  0  0  0  0  0
   -4.6010   -3.4049   -1.2235 H   0  0  0  0  0  0  0  0  0  0  0  0
   -2.0339    0.2525   -1.8766 C   0  0  0  0  0  0  0  0  0  0  0  0
   -1.4954    0.7974   -0.9175 O   0  0  0  0  0  0  0  0  0  0  0  0
   -3.3521    0.4237   -2.1453 N   0  0  0  0  0  0  0  0  0  0  0  0
   -3.8608    1.1190   -1.6288 H   0  0  0  0  0  0  0  0  0  0  0  0
   -3.7610    0.0673   -2.9898 H   0  0  0  0  0  0  0  0  0  0  0  0
   -1.3448   -0.5230   -2.7495 N   0  0  0  0  0  0  0  0  0  0  0  0
   -1.8635   -1.1515   -3.3426 H   0  0  0  0  0  0  0  0  0  0  0  0
   -0.4734   -0.9103   -2.4004 H   0  0  0  0  0  0  0  0  0  0  0  0
  1  2  1  0  0  0  0
  2  3  1  0  0  0  0
  2  4  1  0  0  0  0
  2  5  1  0  0  0  0
  5  6  1  0  0  0  0
  5  7  1  0  0  0  0
  5  8  1  0  0  0  0
  8  9  1  0  0  0  0
  9 10  1  0  0  0  0
  9 11  1  0  0  0  0
  9 12  1  0  0  0  0
  8 13  1  0  0  0  0
 13 14  1  0  0  0  0
 13 15  1  0  0  0  0
 13 16  1  0  0  0  0
  8 17  1  0  0  0  0
 17 18  1  0  0  0  0
 17 19  1  0  0  0  0
 17 20  1  0  0  0  0
  1 21  1  0  0  0  0
 22 23  4  0  0  0  0
 22 24  4  0  0  0  0
 24 25  1  0  0  0  0
 24 26  1  0  0  0  0
 22 27  4  0  0  0  0
 27 28  1  0  0  0  0
 27 29  1  0  0  0  0
 30 31  2  0  0  0  0
 30 32  4  0  0  0  0
 32 33  1  0  0  0  0
 32 34  1  0  0  0  0
 30 35  4  0  0  0  0
 35 36  1  0  0  0  0
 35 37  1  0  0  0  0
 38 39  2  0  0  0  0
 38 40  4  0  0  0  0
 40 41  1  0  0  0  0
 40 42  1  0  0  0  0
 38 43  1  0  0  0  0
 43 44  1  0  0  0  0
 43 45  1  0  0  0  0
 46 47  2  0  0  0  0
 46 48  4  0  0  0  0
 48 49  1  0  0  0  0
 48 50  1  0  0  0  0
 46 51  4  0  0  0  0
 51 52  1  0  0  0  0
 51 53  1  0  0  0  0
M  CHG  1   1   1
M  END
