 xtb: 6.6.1 (unknown-commit)
          01102418233D

 53 48  0     0  0            999 V2000
   -0.2777   -2.6517    1.7715 O   0  0  0  0  0  0  0  0  0  0  0  0
   -1.0291   -1.8972    0.8641 C   0  0  0  0  0  0  0  0  0  0  0  0
   -1.7999   -2.5644    0.4694 H   0  0  0  0  0  0  0  0  0  0  0  0
   -1.5407   -1.0709    1.3782 H   0  0  0  0  0  0  0  0  0  0  0  0
   -0.1985   -1.2419   -0.2416 C   0  0  0  0  0  0  0  0  0  0  0  0
    0.6047   -0.6901    0.2530 H   0  0  0  0  0  0  0  0  0  0  0  0
   -0.8295   -0.5495   -0.8014 H   0  0  0  0  0  0  0  0  0  0  0  0
    0.4398   -2.1593   -1.2280 N   0  0  0  0  0  0  0  0  0  0  0  0
    1.2934   -3.1504   -0.5542 C   0  0  0  0  0  0  0  0  0  0  0  0
    1.9967   -2.6326    0.0971 H   0  0  0  0  0  0  0  0  0  0  0  0
    1.8359   -3.7377   -1.2925 H   0  0  0  0  0  0  0  0  0  0  0  0
    0.6876   -3.8111    0.0621 H   0  0  0  0  0  0  0  0  0  0  0  0
    1.2698   -1.3339   -2.1219 C   0  0  0  0  0  0  0  0  0  0  0  0
    2.0145   -0.7929   -1.5416 H   0  0  0  0  0  0  0  0  0  0  0  0
    0.6271   -0.6265   -2.6425 H   0  0  0  0  0  0  0  0  0  0  0  0
    1.7746   -1.9659   -2.8502 H   0  0  0  0  0  0  0  0  0  0  0  0
   -0.5841   -2.8323   -2.0403 C   0  0  0  0  0  0  0  0  0  0  0  0
   -1.2165   -3.4562   -1.4141 H   0  0  0  0  0  0  0  0  0  0  0  0
   -0.1088   -3.4605   -2.7914 H   0  0  0  0  0  0  0  0  0  0  0  0
   -1.1912   -2.0753   -2.5357 H   0  0  0  0  0  0  0  0  0  0  0  0
    0.5268   -2.1446    1.9937 H   0  0  0  0  0  0  0  0  0  0  0  0
    2.7839   -0.6162    2.6003 C   0  0  0  0  0  0  0  0  0  0  0  0
    2.0765   -1.1639    1.7546 O   0  0  0  0  0  0  0  0  0  0  0  0
    3.1365    0.6777    2.5048 N   0  0  0  0  0  0  0  0  0  0  0  0
    2.6522    1.2584    1.8233 H   0  0  0  0  0  0  0  0  0  0  0  0
    3.6156    1.1372    3.2581 H   0  0  0  0  0  0  0  0  0  0  0  0
    3.2541   -1.3010    3.6721 N   0  0  0  0  0  0  0  0  0  0  0  0
    3.9220   -0.9005    4.3052 H   0  0  0  0  0  0  0  0  0  0  0  0
    3.1026   -2.2933    3.7125 H   0  0  0  0  0  0  0  0  0  0  0  0
    1.3820    2.0429   -0.5223 C   0  0  0  0  0  0  0  0  0  0  0  0
    1.5456    2.1411    0.6963 O   0  0  0  0  0  0  0  0  0  0  0  0
    2.4525    1.9265   -1.3660 N   0  0  0  0  0  0  0  0  0  0  0  0
    3.3488    2.1860   -0.9865 H   0  0  0  0  0  0  0  0  0  0  0  0
    2.3206    2.1195   -2.3445 H   0  0  0  0  0  0  0  0  0  0  0  0
    0.1672    2.0039   -1.0809 N   0  0  0  0  0  0  0  0  0  0  0  0
    0.0376    1.7490   -2.0456 H   0  0  0  0  0  0  0  0  0  0  0  0
   -0.6431    1.8788   -0.4678 H   0  0  0  0  0  0  0  0  0  0  0  0
   -2.4726    0.6575   -3.0404 C   0  0  0  0  0  0  0  0  0  0  0  0
   -1.3526    0.1758   -2.8713 O   0  0  0  0  0  0  0  0  0  0  0  0
   -3.0076    0.7715   -4.2803 N   0  0  0  0  0  0  0  0  0  0  0  0
   -2.4939    0.4163   -5.0663 H   0  0  0  0  0  0  0  0  0  0  0  0
   -3.9380    1.1134   -4.4343 H   0  0  0  0  0  0  0  0  0  0  0  0
   -3.2439    1.0712   -2.0176 N   0  0  0  0  0  0  0  0  0  0  0  0
   -4.1037    1.5595   -2.1922 H   0  0  0  0  0  0  0  0  0  0  0  0
   -2.8490    1.1348   -1.0862 H   0  0  0  0  0  0  0  0  0  0  0  0
   -1.9041    1.6774    1.7607 C   0  0  0  0  0  0  0  0  0  0  0  0
   -2.0040    1.4111    0.5576 O   0  0  0  0  0  0  0  0  0  0  0  0
   -0.7303    1.9818    2.3286 N   0  0  0  0  0  0  0  0  0  0  0  0
    0.1106    2.0651    1.7508 H   0  0  0  0  0  0  0  0  0  0  0  0
   -0.6745    2.2414    3.2962 H   0  0  0  0  0  0  0  0  0  0  0  0
   -2.9872    1.6295    2.5724 N   0  0  0  0  0  0  0  0  0  0  0  0
   -2.9431    1.8934    3.5392 H   0  0  0  0  0  0  0  0  0  0  0  0
   -3.8868    1.4370    2.1707 H   0  0  0  0  0  0  0  0  0  0  0  0
  1  2  1  0  0  0  0
  2  3  1  0  0  0  0
  2  4  1  0  0  0  0
  2  5  1  0  0  0  0
  5  6  1  0  0  0  0
  5  7  1  0  0  0  0
  5  8  1  0  0  0  0
  8  9  1  0  0  0  0
  9 10  1  0  0  0  0
  9 11  1  0  0  0  0
  9 12  1  0  0  0  0
  8 13  1  0  0  0  0
 13 14  1  0  0  0  0
 13 15  1  0  0  0  0
 13 16  1  0  0  0  0
  8 17  1  0  0  0  0
 17 18  1  0  0  0  0
 17 19  1  0  0  0  0
 17 20  1  0  0  0  0
  1 21  1  0  0  0  0
 22 23  4  0  0  0  0
 22 24  4  0  0  0  0
 24 25  1  0  0  0  0
 24 26  1  0  0  0  0
 22 27  4  0  0  0  0
 27 28  1  0  0  0  0
 27 29  1  0  0  0  0
 30 31  4  0  0  0  0
 30 32  1  0  0  0  0
 32 33  1  0  0  0  0
 32 34  1  0  0  0  0
 30 35  4  0  0  0  0
 35 36  1  0  0  0  0
 35 37  1  0  0  0  0
 38 39  2  0  0  0  0
 38 40  4  0  0  0  0
 40 41  1  0  0  0  0
 40 42  1  0  0  0  0
 38 43  4  0  0  0  0
 43 44  1  0  0  0  0
 43 45  1  0  0  0  0
 46 47  4  0  0  0  0
 46 48  4  0  0  0  0
 48 49  1  0  0  0  0
 48 50  1  0  0  0  0
 46 51  4  0  0  0  0
 51 52  1  0  0  0  0
 51 53  1  0  0  0  0
M  CHG  1   1   1
M  END
