  53

 O         -0.3391411370        0.7443005438        2.4221864775
 C          0.6462293752        0.1545853295        1.6070662208
 H          1.0298348156        0.8978453782        0.8941824905
 H          1.4693613889       -0.1341663378        2.2657002728
 C          0.1444401744       -1.0067425609        0.7552916151
 H          0.9163229416       -1.2634319307        0.0279250763
 H         -0.7508504789       -0.6687364937        0.2299019501
 N         -0.2032206698       -2.2682599836        1.4642582357
 C          1.0114258155       -2.8775932803        2.0283464123
 H          1.7643267239       -2.9617296314        1.2434431419
 H          0.7852141925       -3.8648745664        2.4262676783
 H          1.4050045636       -2.2610259103        2.8324223027
 C         -0.7679531360       -3.1822254859        0.4567306592
 H         -1.0243852129       -4.1356765414        0.9148984328
 H         -0.0413533551       -3.3461100087       -0.3364714274
 H         -1.6623403215       -2.7432693548        0.0195823979
 C         -1.2023065428       -2.0286977015        2.5170279143
 H         -1.5185146376       -2.9736677085        2.9546070402
 H         -2.0621683810       -1.5149668116        2.0885960686
 H         -0.7836454526       -1.3941929720        3.2950164481
 H         -1.1800578321        0.7534628811        1.9047973758
 C          2.2960623662       -3.1047209819       -1.8758462222
 O          2.3733884260       -2.3932019371       -0.8701801904
 N          1.2782889227       -2.9919092287       -2.7454312738
 H          0.6669085545       -2.1664520448       -2.6768346219
 H          1.2866302597       -3.4982413843       -3.6125567174
 N          3.1901611664       -4.1011564047       -2.0982179670
 H          3.2125729357       -4.6042514301       -2.9665641370
 H          3.9964788239       -4.1571404359       -1.5015612339
 C          0.6256941934        3.8470678865        0.9942162282
 O          0.2579289695        3.1347893360        0.0576737087
 N          0.4071867019        3.5074599404        2.2773020361
 H          0.0556443245        2.5757615902        2.4861674693
 H          0.7797381365        4.0555979745        3.0309730355
 N          1.2703065318        5.0174709277        0.7752628378
 H          1.4990359773        5.6468730903        1.5226241686
 H          1.3596849357        5.3504366823       -0.1680960401
 C         -3.1149488740        1.3292795044        0.2786565377
 O         -2.5474270050        0.4280084602        0.8994447799
 N         -2.4741785558        2.4357997049       -0.1319595922
 H         -1.4747477536        2.5565686058        0.0230964413
 H         -2.9592787565        3.1560112427       -0.6349899248
 N         -4.4255219909        1.2328683228       -0.0459338357
 H         -4.9260174050        1.9863876692       -0.4800822525
 H         -4.9531295220        0.4563533285        0.3103215491
 C          0.3814755485        0.3786161606       -2.1915436535
 O         -0.1889228046       -0.6752462714       -2.4625308901
 N          1.6434827697        0.4119017728       -1.7054971934
 H          2.1462272434       -0.4512550201       -1.5572388556
 H          2.1077395361        1.2854608346       -1.5416504146
 N         -0.2019086213        1.5886532462       -2.3770735295
 H          0.1090509602        2.3695578346       -1.8187834740
 H         -1.1766252345        1.5706824252       -2.6255338737
