53
 xtb: 6.6.1 (unknown-commit)
O           -0.48386896995302        4.01234172319270       -0.36321972363429
C           -0.63502909905378        3.62067633972534       -1.69149739685712
H           -1.55216532120185        4.09520567293012       -2.05000202606779
H            0.19675748921848        4.00397149875239       -2.30074624799878
C           -0.65213549608033        2.09838738572869       -1.89857748681641
H            0.26007823197231        1.69819326651494       -1.44918144646433
H           -0.64196021317935        1.90319479016056       -2.96930522961391
N           -1.79207437181968        1.35144765167249       -1.30304075590424
C           -1.79793018949384        1.46939387721697        0.16581511667654
H           -0.86524453791055        1.09325276742352        0.57245061193548
H           -2.61905171911844        0.86811519005834        0.55652223249111
H           -1.92134736666037        2.51107117398953        0.46024862893816
C           -1.63956939119664       -0.07139706353462       -1.65778052521862
H           -0.65870716593385       -0.42251779870657       -1.35504299175088
H           -1.75721202490535       -0.20291863095870       -2.73080748532445
H           -2.40498047039096       -0.64088584085052       -1.12844097633074
C           -3.09033255850074        1.81997466793845       -1.81082839204745
H           -3.10396978447932        1.80382052791817       -2.89809536171614
H           -3.28862584049338        2.83743777804319       -1.46659434863342
H           -3.86946940195732        1.16681503891738       -1.42632740614292
H            0.27618487508970        3.53072749342395        0.02500301124125
C            4.01459939919630       -3.00431432940856       -1.96090625359817
O            3.03015034028369       -2.44471824718729       -1.48912297399218
N            4.16487926897676       -4.34515761272180       -1.92448994191370
H            3.42554020349594       -4.92594969182319       -1.55667777747371
H            4.94257258551388       -4.82417349910650       -2.37324973393182
N            5.02248505377208       -2.31444670898929       -2.53068978279745
H            5.85984137161837       -2.76178010409838       -2.89216256709274
H            4.98212960245093       -1.31054726655512       -2.56083172061730
C            1.36169105877253        2.42227537791887        2.02874891546689
O            1.31321360698335        2.30232481694452        0.79579012503140
N            0.99380043988019        1.43028985315986        2.84904420140625
H            0.60959730453757        0.56518707368624        2.45829494421885
H            1.02789376428602        1.53261084342161        3.84791149378621
N            1.79540740042558        3.56914740985744        2.59499316506175
H            1.82016992604708        3.69830387521306        3.59302799065574
H            2.06087535291878        4.33419980518330        2.00712532536230
C            0.74821404520023       -1.25461504312191        0.66563054298892
O            0.00386581445278       -0.84985514798825        1.57119282540121
N            1.44231614723670       -0.40536421962723       -0.12411910479952
H            1.55374484039334        0.55915705824564        0.19418476230283
H            2.16515049802380       -0.80678779302488       -0.70735584632445
N            0.83077951902415       -2.55377518624696        0.32586026256973
H            1.53067104351788       -2.82924784526101       -0.35087717265958
H            0.35794829752790       -3.23828685685579        0.88151071552279
C           -3.73096193246476       -1.65219160144908        1.32854485134547
O           -3.73617413848617       -0.87469552032197        0.38002263880559
N           -4.88062011643950       -2.20455199984348        1.79351437147092
H           -5.72484577799787       -2.05018127103770        1.26737648191767
H           -4.88209477017684       -2.93595746738281        2.47934715183126
N           -2.59857184116762       -2.01916724593286        1.96770953040428
H           -2.65530207092644       -2.54293655926581        2.82036410118253
H           -1.72573749790493       -1.53368702949759        1.78090828077049
