  53

 O          1.0773377594       -2.7176763186        1.3803480924
 C          0.1090980445       -1.8156963677        1.8259217879
 H         -0.5022886244       -2.3417138242        2.5630117291
 H          0.5804959390       -0.9634382415        2.3358858031
 C         -0.7299475649       -1.2122456415        0.6911695351
 H         -0.0343622634       -0.7913285261       -0.0395497198
 H         -1.3569489204       -0.4161835272        1.0946571658
 N         -1.6189030461       -2.1560466102       -0.0440787237
 C         -0.8055127849       -3.0907526501       -0.8387743775
 H         -0.2151663200       -2.5115121718       -1.5478009523
 H         -1.4501562079       -3.7829329551       -1.3766448609
 H         -0.1315305176       -3.6411770632       -0.1846609421
 C         -2.4613861884       -1.3632725223       -0.9585403066
 H         -1.8239450771       -0.8719113130       -1.6901395454
 H         -3.0101855877       -0.6097579040       -0.3970692408
 H         -3.1616499569       -2.0151938619       -1.4766313834
 C         -2.4863963529       -2.9001172663        0.8797328289
 H         -1.8972425364       -3.5840250122        1.4860011938
 H         -3.2147746029       -3.4808400780        0.3161172125
 H         -3.0147161378       -2.2020526061        1.5267059392
 H          1.6765744986       -2.2024143499        0.7928099510
 C          3.3752794646       -0.2804884935        0.2684157762
 O          2.3273245948       -0.8332420955       -0.0560387827
 N          3.5761764839        1.0401707170        0.1009068251
 H          2.7928818153        1.6240252556       -0.1710631355
 H          4.3983660573        1.4901656676        0.4599562311
 N          4.4006020762       -0.9797704906        0.8202728293
 H          5.2949910933       -0.5615744833        0.9990755199
 H          4.3269554427       -1.9799743717        0.8776249075
 C          0.1097968163        2.6367442668       -0.3605689728
 O          1.2989328993        2.6183591839       -0.6718304169
 N         -0.3733202591        3.5733277948        0.5383443054
 H          0.2627344456        4.3404282624        0.7039651160
 H         -1.3303228060        3.8616636776        0.4005150942
 N         -0.7869343933        1.7612125885       -0.8201259089
 H         -1.6886776346        1.6688349014       -0.3736513465
 H         -0.4564381269        0.9956710776       -1.4132435180
 C          1.2136887516       -0.2644849813       -2.9194838603
 O          0.1269442264       -0.4218569703       -2.3563729033
 N          1.9295774539        0.8632821684       -2.8115795912
 H          1.6834753598        1.5402136324       -2.0890508991
 H          2.8616562701        0.9078532733       -3.1819292962
 N          1.7331714390       -1.2407097271       -3.7081858139
 H          2.5443462785       -1.0710046430       -4.2746001251
 H          1.1506098919       -2.0201482510       -3.9570750159
 C         -3.0825519962        1.6377011680        2.1957682284
 O         -2.9106931299        1.0493102414        1.1320432414
 N         -2.1333907653        2.4318653219        2.7366132168
 H         -1.2849650071        2.6101316787        2.2177388372
 H         -2.2820670548        2.9223855305        3.5991124350
 N         -4.2158038222        1.4832644634        2.9217867585
 H         -4.4073497671        2.0467024599        3.7302126223
 H         -4.9839262271        0.9868114228        2.5059633267
