53
 xtb: 6.6.1 (unknown-commit)
O            0.32940721377110       -0.52773102366048       -1.55992940090750
C            0.68690410488076       -1.81627572151677       -1.16180437364548
H            0.49565777396334       -2.47545864771842       -2.00960630358061
H            1.76234818126180       -1.86936409958403       -0.93382860966905
C           -0.03568841928783       -2.31443392726356        0.09981319482215
H            0.18569211413307       -1.64196498504697        0.94016262575750
H            0.35132086737066       -3.30734711783112        0.33607806305936
N           -1.51811683694957       -2.40127422102869        0.01254759813257
C           -2.01034572806803       -3.09420007812248        1.21620143173089
H           -1.67925646387376       -2.54214618636734        2.09998649821347
H           -1.62311381186636       -4.10940648207215        1.25797615193028
H           -3.09723525347717       -3.11946063483160        1.18282754908002
C           -1.96585286594822       -3.13575145170176       -1.17891552726622
H           -3.04505806240566       -3.26067172061678       -1.11559901288996
H           -1.48872793361506       -4.11791938670247       -1.21214676302207
H           -1.71908566059102       -2.58065430806985       -2.07401215263089
C           -2.11326827132565       -1.05352721394076       -0.00212923204324
H           -1.74941005783523       -0.50217628990467       -0.86393350743452
H           -1.82669080373600       -0.53624504794461        0.91104540478332
H           -3.19663341931113       -1.15600982408417       -0.04635959268276
H            0.64492475825325        0.09918458299928       -0.85603639411595
C            5.51567273151553        4.34070324418846       -2.35278921014729
O            4.74436698426026        3.60097705885309       -1.75696747230175
N            5.18357023625006        4.93756452873539       -3.52360569609321
H            4.24016810286293        4.85471229457827       -3.85115655174895
H            5.77319808707177        5.62773307003792       -3.95112983751962
N            6.75585290094283        4.61876891175456       -1.88284257761228
H            7.43230525012291        5.11473347864391       -2.43488790893174
H            7.08903327958894        4.10024093561607       -1.08908993693929
C            2.33310424468977        1.75078677630535       -0.27373577933368
O            1.46479472629279        1.04688319556933        0.26570784411533
N            2.47851301296930        1.81436881457008       -1.60627666714202
H            1.88192035410365        1.26411753243849       -2.20117683219808
H            3.21811369725656        2.38273514810951       -1.99251009009569
N            3.18394454023932        2.51511878387109        0.43451388614931
H            3.89993741752559        3.03074604032715       -0.05877491619212
H            3.18495504196093        2.47490447359142        1.43463118497423
C           -6.08972851367446       -2.84056590664545       -0.12917650509491
O           -4.87106148490059       -2.75566832822197       -0.08844652099319
N           -6.79667129567198       -2.54680060302893       -1.25981122427028
H           -6.32031013904766       -1.96798110204969       -1.95372518911580
H           -7.80488024867661       -2.40900295560951       -1.20247766903195
N           -6.82459688546697       -3.23476442998677        0.95124613317104
H           -7.80297572326971       -3.51087082321365        0.82063642332530
H           -6.33042700498676       -3.74794382421325        1.68039741927058
C           -0.17622973608626        0.11923187373006        3.43831096909145
O           -0.60496939495068       -0.79879098575413        2.74752735040880
N           -0.61369557268167        0.30848635703095        4.71474529437699
H           -1.18132128586938       -0.40529425674449        5.12589605696829
H           -0.15138408604735        0.95059523919644        5.33599954012131
N            0.74286432260923        0.99725099223160        2.99085693437188
H            0.94414211903611        1.83176396933682        3.52200474080955
H            0.98311552140585        0.99730331517091        1.99894986604484
