 xtb: 6.6.1 (unknown-commit)
          01102415393D

 53 48  0     0  0            999 V2000
    0.3287   -0.5282   -1.5566 O   0  0  0  0  0  0  0  0  0  0  0  0
    0.6875   -1.8156   -1.1568 C   0  0  0  0  0  0  0  0  0  0  0  0
    0.4961   -2.4757   -2.0079 H   0  0  0  0  0  0  0  0  0  0  0  0
    1.7625   -1.8687   -0.9322 H   0  0  0  0  0  0  0  0  0  0  0  0
   -0.0350   -2.3125    0.1054 C   0  0  0  0  0  0  0  0  0  0  0  0
    0.1854   -1.6408    0.9414 H   0  0  0  0  0  0  0  0  0  0  0  0
    0.3520   -3.3064    0.3384 H   0  0  0  0  0  0  0  0  0  0  0  0
   -1.5172   -2.4022    0.0178 N   0  0  0  0  0  0  0  0  0  0  0  0
   -2.0090   -3.0925    1.2227 C   0  0  0  0  0  0  0  0  0  0  0  0
   -1.6792   -2.5408    2.1015 H   0  0  0  0  0  0  0  0  0  0  0  0
   -1.6223   -4.1087    1.2607 H   0  0  0  0  0  0  0  0  0  0  0  0
   -3.0968   -3.1194    1.1847 H   0  0  0  0  0  0  0  0  0  0  0  0
   -1.9628   -3.1408   -1.1723 C   0  0  0  0  0  0  0  0  0  0  0  0
   -3.0441   -3.2626   -1.1139 H   0  0  0  0  0  0  0  0  0  0  0  0
   -1.4874   -4.1192   -1.2093 H   0  0  0  0  0  0  0  0  0  0  0  0
   -1.7183   -2.5828   -2.0725 H   0  0  0  0  0  0  0  0  0  0  0  0
   -2.1148   -1.0556   -0.0014 C   0  0  0  0  0  0  0  0  0  0  0  0
   -1.7500   -0.5033   -0.8641 H   0  0  0  0  0  0  0  0  0  0  0  0
   -1.8275   -0.5359    0.9109 H   0  0  0  0  0  0  0  0  0  0  0  0
   -3.1970   -1.1573   -0.0462 H   0  0  0  0  0  0  0  0  0  0  0  0
    0.6446    0.0995   -0.8555 H   0  0  0  0  0  0  0  0  0  0  0  0
    5.5190    4.3349   -2.3575 C   0  0  0  0  0  0  0  0  0  0  0  0
    4.7463    3.5972   -1.7614 O   0  0  0  0  0  0  0  0  0  0  0  0
    5.1918    4.9238   -3.5338 N   0  0  0  0  0  0  0  0  0  0  0  0
    4.2428    4.8502   -3.8549 H   0  0  0  0  0  0  0  0  0  0  0  0
    5.7757    5.6235   -3.9543 H   0  0  0  0  0  0  0  0  0  0  0  0
    6.7570    4.6168   -1.8841 N   0  0  0  0  0  0  0  0  0  0  0  0
    7.4331    5.1135   -2.4352 H   0  0  0  0  0  0  0  0  0  0  0  0
    7.0886    4.1011   -1.0882 H   0  0  0  0  0  0  0  0  0  0  0  0
    2.3328    1.7522   -0.2749 C   0  0  0  0  0  0  0  0  0  0  0  0
    1.4633    1.0509    0.2657 O   0  0  0  0  0  0  0  0  0  0  0  0
    2.4799    1.8115   -1.6075 N   0  0  0  0  0  0  0  0  0  0  0  0
    1.8823    1.2630   -2.2012 H   0  0  0  0  0  0  0  0  0  0  0  0
    3.2186    2.3816   -1.9931 H   0  0  0  0  0  0  0  0  0  0  0  0
    3.1834    2.5182    0.4319 N   0  0  0  0  0  0  0  0  0  0  0  0
    3.8999    3.0312   -0.0597 H   0  0  0  0  0  0  0  0  0  0  0  0
    3.1844    2.4767    1.4340 H   0  0  0  0  0  0  0  0  0  0  0  0
   -6.0881   -2.8456   -0.1296 C   0  0  0  0  0  0  0  0  0  0  0  0
   -4.8692   -2.7627   -0.0856 O   0  0  0  0  0  0  0  0  0  0  0  0
   -6.8040   -2.4046   -1.1928 N   0  0  0  0  0  0  0  0  0  0  0  0
   -6.3241   -1.9027   -1.9182 H   0  0  0  0  0  0  0  0  0  0  0  0
   -7.8069   -2.3734   -1.1822 H   0  0  0  0  0  0  0  0  0  0  0  0
   -6.8133   -3.3861    0.8792 N   0  0  0  0  0  0  0  0  0  0  0  0
   -7.8001   -3.5485    0.7976 H   0  0  0  0  0  0  0  0  0  0  0  0
   -6.3256   -3.8165    1.6442 H   0  0  0  0  0  0  0  0  0  0  0  0
   -0.1821    0.1298    3.4373 C   0  0  0  0  0  0  0  0  0  0  0  0
   -0.6087   -0.7891    2.7477 O   0  0  0  0  0  0  0  0  0  0  0  0
   -0.6240    0.3232    4.7117 N   0  0  0  0  0  0  0  0  0  0  0  0
   -1.1844   -0.4011    5.1251 H   0  0  0  0  0  0  0  0  0  0  0  0
   -0.1548    0.9551    5.3351 H   0  0  0  0  0  0  0  0  0  0  0  0
    0.7373    1.0080    2.9899 N   0  0  0  0  0  0  0  0  0  0  0  0
    0.9420    1.8352    3.5212 H   0  0  0  0  0  0  0  0  0  0  0  0
    0.9822    0.9995    1.9988 H   0  0  0  0  0  0  0  0  0  0  0  0
  1  2  1  0  0  0  0
  2  3  1  0  0  0  0
  2  4  1  0  0  0  0
  2  5  1  0  0  0  0
  5  6  1  0  0  0  0
  5  7  1  0  0  0  0
  5  8  1  0  0  0  0
  8  9  1  0  0  0  0
  9 10  1  0  0  0  0
  9 11  1  0  0  0  0
  9 12  1  0  0  0  0
  8 13  1  0  0  0  0
 13 14  1  0  0  0  0
 13 15  1  0  0  0  0
 13 16  1  0  0  0  0
  8 17  1  0  0  0  0
 17 18  1  0  0  0  0
 17 19  1  0  0  0  0
 17 20  1  0  0  0  0
  1 21  1  0  0  0  0
 22 23  2  0  0  0  0
 22 24  4  0  0  0  0
 24 25  1  0  0  0  0
 24 26  1  0  0  0  0
 22 27  4  0  0  0  0
 27 28  1  0  0  0  0
 27 29  1  0  0  0  0
 30 31  4  0  0  0  0
 30 32  4  0  0  0  0
 32 33  1  0  0  0  0
 32 34  1  0  0  0  0
 30 35  4  0  0  0  0
 35 36  1  0  0  0  0
 35 37  1  0  0  0  0
 38 39  2  0  0  0  0
 38 40  4  0  0  0  0
 40 41  1  0  0  0  0
 40 42  1  0  0  0  0
 38 43  4  0  0  0  0
 43 44  1  0  0  0  0
 43 45  1  0  0  0  0
 46 47  2  0  0  0  0
 46 48  1  0  0  0  0
 48 49  1  0  0  0  0
 48 50  1  0  0  0  0
 46 51  4  0  0  0  0
 51 52  1  0  0  0  0
 51 53  1  0  0  0  0
M  CHG  1   1   1
M  END
