  50

 C         -0.1222198753        2.5262609445        0.1489575814
 O         -0.0402534282        1.2873857208        0.1219741342
 N          0.9555451095        3.3082480701       -0.0342807852
 H          1.8517540232        2.8812051655       -0.1918286662
 H          0.8973577860        4.3098068390       -0.0003214391
 N         -1.2930723187        3.1491572993        0.3689015100
 H         -1.3733660811        4.1497424720        0.3637150435
 H         -2.1275457151        2.5991515129        0.4808596642
 O         -2.5862421919        0.3497822564        0.2779411447
 C         -2.7344509683       -0.8250645824        1.0313877157
 H         -2.3860712404       -1.6966151131        0.4607213345
 H         -2.1390490925       -0.7741263239        1.9523351266
 C         -4.1894554867       -1.0202061837        1.4801813842
 H         -4.4617980222       -0.2016232260        2.1490688161
 H         -4.2324220753       -1.9568882721        2.0389373396
 N         -5.2183325724       -1.0704959502        0.3985326088
 C         -5.4810982550        0.2884307774       -0.1140420699
 H         -5.9125180696        0.9074133432        0.6701242439
 H         -6.1786106754        0.2444039170       -0.9478257227
 H         -4.5456158456        0.7351061887       -0.4452883296
 C         -6.4662555543       -1.6165428306        0.9671308712
 H         -6.7702014691       -1.0400232983        1.8390530079
 H         -6.3282417289       -2.6545697667        1.2648571834
 H         -7.2635700648       -1.5712971188        0.2272786185
 C         -4.7828137168       -1.9286031245       -0.7171656127
 H         -4.4898887089       -2.9096868831       -0.3475563778
 H         -3.9440081539       -1.4680590368       -1.2342535728
 H         -5.5992577382       -2.0536487175       -1.4260580760
 H         -1.6254242265        0.5648809395        0.1909980565
 O          2.5881905357        0.6331743277       -0.1414944173
 C          2.8133485443       -0.6432927614       -0.6796963441
 H          2.6388712606       -1.4179807871        0.0797249074
 H          2.1280780939       -0.8389681442       -1.5144391784
 C          4.2284199963       -0.7658094907       -1.2620222344
 H          4.3253839617       -0.0633379821       -2.0919787480
 H          4.3321703393       -1.7812273172       -1.6488144562
 N          5.3602360256       -0.5030845788       -0.3235976335
 C          5.4980501319        0.9480207397       -0.0930379344
 H          5.7702054575        1.4500967661       -1.0192949380
 H          6.2721091449        1.1368207714        0.6477539735
 H          4.5492821989        1.3463174573        0.2609031090
 C          6.6027000904       -1.0104911502       -0.9379504831
 H          6.7387545437       -0.5814152484       -1.9291039296
 H          6.5690044242       -2.0949042130       -1.0277959629
 H          7.4594989072       -0.7401419418       -0.3231800499
 C          5.1538128844       -1.1777984626        0.9699041865
 H          4.9494882848       -2.2358193032        0.8160455463
 H          4.3218937994       -0.7192877488        1.4997706376
 H          6.0486302099       -1.0819910437        1.5821921754
 H          1.6168203771        0.7659472137       -0.0178424097
          50
        -62.95761605
 C        -11.0254225516        2.7765956052       -0.2017159297
 O        -11.3660100222        1.5921132001       -0.2596079097
 N        -11.7688016377        3.7543068947       -0.7552249498
 H        -12.6291687465        3.5158260962       -1.2148384863
 H        -11.5099368127        4.7222924335       -0.7004375751
 N         -9.8937369510        3.1611516081        0.4229399999
 H         -9.6023641805        4.1210748070        0.4525516678
 H         -9.2855168632        2.4676744529        0.8253609887
 O         -9.8250818366       -0.2207556133        1.0213409230
 C        -10.7876394811       -0.9670641945        1.6992020118
 H        -10.3060675995       -1.8952459632        2.0183308356
 H        -11.1203841297       -0.4408562416        2.6070631461
 C        -12.0607867917       -1.2205633169        0.8764948050
 H        -12.4355171529       -0.2441892545        0.5577300027
 H        -12.8008977298       -1.6997066805        1.5194654231
 N        -11.9044647753       -2.0537699279       -0.3524474477
 C        -11.4242591517       -3.4051284596       -0.0193107711
 H        -10.4209921172       -3.3565657494        0.3976981327
 H        -11.3936280369       -4.0192469301       -0.9176846873
 H        -12.0880109146       -3.8742554687        0.7053076856
 C        -10.9669490308       -1.4186019509       -1.2984645953
 H         -9.9648921212       -1.4000050206       -0.8743364421
 H        -11.2723165631       -0.3893391674       -1.4828377921
 H        -10.9544613086       -1.9705365211       -2.2357614659
 C        -13.2268171088       -2.1565867173       -0.9969017600
 H        -13.5884628492       -1.1645155751       -1.2617108178
 H        -13.9438413949       -2.6245173657       -0.3241735701
 H        -13.1565488470       -2.7556367436       -1.9030663201
 H        -10.2911581472        0.5346069392        0.5878010083
 O         16.5341401762        1.6837024256        0.4351378321
 C         17.7523755780        1.7829681504       -0.2662328529
 H         17.5687080189        1.8269203107       -1.3484521767
 H         18.2998549339        2.6899786051        0.0160749589
 C         18.6678108936        0.6024546841        0.0820947665
 H         18.9851278638        0.6989829791        1.1221133994
 H         19.5471938414        0.6727402165       -0.5611249604
 N         18.0687745890       -0.7570597647       -0.0744646519
 C         17.2665919000       -0.8514787265       -1.3071352686
 H         17.8558141586       -0.5385156437       -2.1673269358
 H         16.3825098146       -0.2233402482       -1.2212268515
 H         16.9467305705       -1.8805693259       -1.4599568020
 C         17.2089263554       -1.0680230422        1.0855811793
 H         16.4585027394       -0.2887438514        1.2013681398
 H         17.8074757901       -1.1193097547        1.9929077279
 H         16.7160110409       -2.0264020053        0.9364675401
 C         19.1628637803       -1.7453079048       -0.1331277976
 H         19.7571516376       -1.6040062808       -1.0345030503
 H         18.7530100974       -2.7539168327       -0.1421026201
 H         19.8123135937       -1.6427143362        0.7346879594
 H         16.0853968904        2.5354154911        0.4403120443
