 xtb: 6.6.1 (unknown-commit)
          01102418273D

 53 48  0     0  0            999 V2000
   -0.9230   -0.2645   -2.6285 O   0  0  0  0  0  0  0  0  0  0  0  0
   -0.6368   -1.6199   -2.4551 C   0  0  0  0  0  0  0  0  0  0  0  0
   -1.4436   -2.1708   -2.9468 H   0  0  0  0  0  0  0  0  0  0  0  0
    0.3027   -1.8909   -2.9588 H   0  0  0  0  0  0  0  0  0  0  0  0
   -0.4781   -2.0671   -0.9929 C   0  0  0  0  0  0  0  0  0  0  0  0
    0.3720   -1.5535   -0.5333 H   0  0  0  0  0  0  0  0  0  0  0  0
   -0.2745   -3.1398   -1.0028 H   0  0  0  0  0  0  0  0  0  0  0  0
   -1.6419   -1.8234   -0.1000 N   0  0  0  0  0  0  0  0  0  0  0  0
   -1.7618   -0.3877    0.2104 C   0  0  0  0  0  0  0  0  0  0  0  0
   -2.6065   -0.2491    0.8822 H   0  0  0  0  0  0  0  0  0  0  0  0
   -1.9179    0.1754   -0.7065 H   0  0  0  0  0  0  0  0  0  0  0  0
   -0.8436   -0.0590    0.6941 H   0  0  0  0  0  0  0  0  0  0  0  0
   -1.4045   -2.5338    1.1689 C   0  0  0  0  0  0  0  0  0  0  0  0
   -2.2350   -2.3255    1.8415 H   0  0  0  0  0  0  0  0  0  0  0  0
   -0.4729   -2.1750    1.6039 H   0  0  0  0  0  0  0  0  0  0  0  0
   -1.3403   -3.6062    0.9970 H   0  0  0  0  0  0  0  0  0  0  0  0
   -2.9047   -2.2940   -0.6867 C   0  0  0  0  0  0  0  0  0  0  0  0
   -3.6899   -2.1787    0.0605 H   0  0  0  0  0  0  0  0  0  0  0  0
   -2.8217   -3.3415   -0.9704 H   0  0  0  0  0  0  0  0  0  0  0  0
   -3.1555   -1.6975   -1.5603 H   0  0  0  0  0  0  0  0  0  0  0  0
   -0.1462    0.2649   -2.3206 H   0  0  0  0  0  0  0  0  0  0  0  0
    2.3814   -0.4916    1.1879 C   0  0  0  0  0  0  0  0  0  0  0  0
    1.1986   -0.8028    1.2933 O   0  0  0  0  0  0  0  0  0  0  0  0
    2.9527   -0.2143   -0.0081 N   0  0  0  0  0  0  0  0  0  0  0  0
    2.3188    0.0491   -0.7554 H   0  0  0  0  0  0  0  0  0  0  0  0
    3.8295    0.2850   -0.0265 H   0  0  0  0  0  0  0  0  0  0  0  0
    3.2038   -0.4342    2.2666 N   0  0  0  0  0  0  0  0  0  0  0  0
    4.1945   -0.3178    2.1510 H   0  0  0  0  0  0  0  0  0  0  0  0
    2.8724   -0.8084    3.1381 H   0  0  0  0  0  0  0  0  0  0  0  0
    3.2443    3.0065    0.3851 C   0  0  0  0  0  0  0  0  0  0  0  0
    4.0647    2.4456   -0.3388 O   0  0  0  0  0  0  0  0  0  0  0  0
    1.9165    2.9131    0.1720 N   0  0  0  0  0  0  0  0  0  0  0  0
    1.5828    2.2765   -0.5451 H   0  0  0  0  0  0  0  0  0  0  0  0
    1.2540    3.2911    0.8235 H   0  0  0  0  0  0  0  0  0  0  0  0
    3.6366    3.7342    1.4611 N   0  0  0  0  0  0  0  0  0  0  0  0
    2.9933    4.3238    1.9577 H   0  0  0  0  0  0  0  0  0  0  0  0
    4.6176    3.9349    1.5501 H   0  0  0  0  0  0  0  0  0  0  0  0
    1.9533    1.4153   -3.0112 C   0  0  0  0  0  0  0  0  0  0  0  0
    1.3086    1.0838   -1.9979 O   0  0  0  0  0  0  0  0  0  0  0  0
    1.4304    1.2287   -4.2419 N   0  0  0  0  0  0  0  0  0  0  0  0
    0.4819    0.9006   -4.3206 H   0  0  0  0  0  0  0  0  0  0  0  0
    1.8973    1.5506   -5.0697 H   0  0  0  0  0  0  0  0  0  0  0  0
    3.1802    1.9275   -2.9163 N   0  0  0  0  0  0  0  0  0  0  0  0
    3.6980    2.2061   -3.7294 H   0  0  0  0  0  0  0  0  0  0  0  0
    3.5878    2.0919   -1.9874 H   0  0  0  0  0  0  0  0  0  0  0  0
   -5.1684   -1.3094    2.7828 C   0  0  0  0  0  0  0  0  0  0  0  0
   -4.2430   -1.4364    1.9930 O   0  0  0  0  0  0  0  0  0  0  0  0
   -6.4613   -1.4752    2.4146 N   0  0  0  0  0  0  0  0  0  0  0  0
   -6.6718   -1.6097    1.4420 H   0  0  0  0  0  0  0  0  0  0  0  0
   -7.2216   -1.2728    3.0373 H   0  0  0  0  0  0  0  0  0  0  0  0
   -4.9667   -0.9939    4.0848 N   0  0  0  0  0  0  0  0  0  0  0  0
   -5.7143   -0.9929    4.7540 H   0  0  0  0  0  0  0  0  0  0  0  0
   -4.0241   -0.9566    4.4288 H   0  0  0  0  0  0  0  0  0  0  0  0
  1  2  1  0  0  0  0
  2  3  1  0  0  0  0
  2  4  1  0  0  0  0
  2  5  1  0  0  0  0
  5  6  1  0  0  0  0
  5  7  1  0  0  0  0
  5  8  1  0  0  0  0
  8  9  1  0  0  0  0
  9 10  1  0  0  0  0
  9 11  1  0  0  0  0
  9 12  1  0  0  0  0
  8 13  1  0  0  0  0
 13 14  1  0  0  0  0
 13 15  1  0  0  0  0
 13 16  1  0  0  0  0
  8 17  1  0  0  0  0
 17 18  1  0  0  0  0
 17 19  1  0  0  0  0
 17 20  1  0  0  0  0
  1 21  1  0  0  0  0
 22 23  2  0  0  0  0
 22 24  4  0  0  0  0
 24 25  1  0  0  0  0
 24 26  1  0  0  0  0
 22 27  1  0  0  0  0
 27 28  1  0  0  0  0
 27 29  1  0  0  0  0
 30 31  2  0  0  0  0
 30 32  4  0  0  0  0
 32 33  1  0  0  0  0
 32 34  1  0  0  0  0
 30 35  4  0  0  0  0
 35 36  1  0  0  0  0
 35 37  1  0  0  0  0
 38 39  4  0  0  0  0
 38 40  4  0  0  0  0
 40 41  1  0  0  0  0
 40 42  1  0  0  0  0
 38 43  4  0  0  0  0
 43 44  1  0  0  0  0
 43 45  1  0  0  0  0
 46 47  2  0  0  0  0
 46 48  4  0  0  0  0
 48 49  1  0  0  0  0
 48 50  1  0  0  0  0
 46 51  4  0  0  0  0
 51 52  1  0  0  0  0
 51 53  1  0  0  0  0
M  CHG  1   1   1
M  END
