  53

 O         -1.4861993688        0.6411713187       -2.5032477795
 C         -0.7501833850       -0.4612553117       -2.9376205600
 H         -1.3767520067       -0.9907828719       -3.6610399529
 H          0.1622558181       -0.1423062000       -3.4613393803
 C         -0.2885465515       -1.4073596114       -1.8156905642
 H          0.3962905734       -0.8816104540       -1.1443395799
 H          0.2495451253       -2.2325955982       -2.2863270736
 N         -1.3635965424       -1.9806212346       -0.9623066685
 C         -1.8835197471       -0.9606151439       -0.0344569020
 H         -1.0684192136       -0.6135973163        0.5976909269
 H         -2.6608005726       -1.4148277436        0.5768174312
 H         -2.2913826267       -0.1251694264       -0.5981912482
 C         -0.7845346721       -3.0688942829       -0.1551761231
 H          0.0456308946       -2.6741599828        0.4278830727
 H         -0.4290389679       -3.8698351123       -0.7999075436
 H         -1.5557131787       -3.4566627043        0.5082626925
 C         -2.4806279464       -2.5140748083       -1.7552218876
 H         -2.9952407468       -1.7040064338       -2.2659531558
 H         -3.1765104585       -3.0036970084       -1.0741193651
 H         -2.1150456181       -3.2339397057       -2.4850943002
 H         -0.8815437213        1.2169875724       -1.9720960677
 C          4.5522832459        2.8253882373        0.7591892485
 O          3.3956785414        3.1958239507        0.9362002018
 N          5.4964140518        3.6607376829        0.2580098675
 H          5.2667075675        4.6362530923        0.1834100323
 H          6.4692383322        3.4120181301        0.2551448599
 N          4.9582865637        1.5667491302        1.0315867235
 H          5.8880970923        1.2591198386        0.8129446055
 H          4.2781035875        0.8756014847        1.3215710600
 C          0.4571878463        3.3151403391       -1.5157546118
 O          0.2690356417        2.1457732358       -1.1646404252
 N         -0.2971139542        3.8693446994       -2.4927544813
 H         -1.0482935087        3.3302039103       -2.8878322514
 H         -0.2028004783        4.8307122551       -2.7633187927
 N          1.4114353070        4.0848552707       -0.9733062313
 H          1.5369964323        5.0364755105       -1.2660483671
 H          2.0342992028        3.7194197556       -0.2598619818
 C         -4.5445856508       -3.8771862940        1.7387868561
 O         -3.7159727023       -3.4058585516        0.9727651723
 N         -4.4176973812       -3.7828222918        3.0846148416
 H         -3.6671187857       -3.2303446109        3.4582437116
 H         -5.1423962443       -4.0818657156        3.7107098183
 N         -5.6474443698       -4.5292382530        1.2996855489
 H         -6.2776490202       -4.9941049420        1.9268640344
 H         -5.7446859784       -4.7039095323        0.3157536855
 C          1.7141292528        0.0361352641        1.4931400914
 O          1.1846673963       -0.9277594811        0.9552427666
 N          2.7889760883       -0.1210244977        2.3561268752
 H          2.9234328839       -1.0643980270        2.6893372883
 H          2.9017418877        0.5878521290        3.0651832933
 N          1.3246956656        1.3066647834        1.3019766161
 H          1.9726139258        2.0528336436        1.5326448012
 H          0.7592785189        1.5011605836        0.4778082942
