  53

 O          1.0238327935       -0.1511713122        2.9798809968
 C         -0.2262758560        0.0740916267        2.3898851741
 H         -0.9778255445       -0.2209144318        3.1247136045
 H         -0.3699397723        1.1421444854        2.1823341651
 C         -0.4190828678       -0.6502388880        1.0527830192
 H          0.4375446364       -0.4254766286        0.4133596361
 H         -1.3299319981       -0.2760013767        0.5825828679
 N         -0.5445941581       -2.1325581943        1.1194387617
 C          0.7129219473       -2.7302989759        1.5920046725
 H          1.4975255463       -2.5087799522        0.8709342818
 H          0.6031538408       -3.8089032660        1.6856410412
 H          0.9885311383       -2.3013132121        2.5538029386
 C         -0.8291750000       -2.6082990444       -0.2456670315
 H         -0.0130888201       -2.3167180003       -0.9033880834
 H         -1.7617872170       -2.1618320491       -0.5863285286
 H         -0.9234273239       -3.6923339002       -0.2482503107
 C         -1.6621821308       -2.5286554281        1.9888244528
 H         -1.4467228179       -2.2828955848        3.0251083821
 H         -1.8223383367       -3.6025744216        1.9141043650
 H         -2.5605070092       -2.0083425264        1.6569750243
 H          1.6898416154        0.2943308113        2.4234048874
 C          3.1773596078       -1.3164724334       -1.1602797733
 O          1.9486632607       -1.4269567741       -1.1562446372
 N          3.8056917131       -0.3197975532       -0.5216068155
 H          3.2618638072        0.3102136074        0.0655406038
 H          4.8067590592       -0.2860548940       -0.4613216899
 N          3.9565071426       -2.2153383863       -1.8112103560
 H          4.9496694844       -2.0976371110       -1.8919292260
 H          3.5148944528       -2.9206739242       -2.3729808938
 C          2.0333780029        2.5735925264        0.9748689225
 O          2.3140675769        1.3800421558        1.1090625968
 N          2.7914232010        3.5342885893        1.5559377497
 H          3.5278452011        3.2499467815        2.1772131488
 H          2.5291772647        4.5028215550        1.5447197828
 N          0.9817974186        2.9881186778        0.2518946778
 H          0.7964333275        3.9656016429        0.1209230685
 H          0.4024036330        2.3205335271       -0.2514079737
 C         -0.7286318090        0.9903465791       -2.4195939259
 O         -0.8384351447        1.4550149593       -1.2833360911
 N         -1.6043306746        1.3291331448       -3.3990613561
 H         -2.2847245308        2.0437993940       -3.2140991769
 H         -1.4829213104        1.0281922445       -4.3485214734
 N          0.2454130961        0.1340832212       -2.7645758922
 H          0.2634230757       -0.2754732124       -3.6808789728
 H          0.8550471906       -0.2737351001       -2.0601129306
 C         -4.0531553105        0.2846115175       -0.0420824245
 O         -3.3587815668       -0.7159471734        0.0966748984
 N         -5.4016289351        0.2405665611        0.1052032564
 H         -5.8206648791       -0.6194347308        0.4099599595
 H         -5.9702735565        1.0669777549        0.0928749392
 N         -3.5265854446        1.4912410023       -0.3405269589
 H         -4.1167674602        2.2843922534       -0.5121108861
 H         -2.5423836908        1.5512173324       -0.5901961585
