 xtb: 6.6.1 (unknown-commit)
          01102418243D

 53 48  0     0  0            999 V2000
    1.0238   -0.1512    2.9799 O   0  0  0  0  0  0  0  0  0  0  0  0
   -0.2263    0.0741    2.3899 C   0  0  0  0  0  0  0  0  0  0  0  0
   -0.9778   -0.2209    3.1247 H   0  0  0  0  0  0  0  0  0  0  0  0
   -0.3699    1.1422    2.1823 H   0  0  0  0  0  0  0  0  0  0  0  0
   -0.4191   -0.6502    1.0528 C   0  0  0  0  0  0  0  0  0  0  0  0
    0.4375   -0.4255    0.4134 H   0  0  0  0  0  0  0  0  0  0  0  0
   -1.3299   -0.2760    0.5826 H   0  0  0  0  0  0  0  0  0  0  0  0
   -0.5446   -2.1326    1.1194 N   0  0  0  0  0  0  0  0  0  0  0  0
    0.7129   -2.7303    1.5920 C   0  0  0  0  0  0  0  0  0  0  0  0
    1.4975   -2.5088    0.8709 H   0  0  0  0  0  0  0  0  0  0  0  0
    0.6031   -3.8089    1.6856 H   0  0  0  0  0  0  0  0  0  0  0  0
    0.9885   -2.3013    2.5538 H   0  0  0  0  0  0  0  0  0  0  0  0
   -0.8292   -2.6083   -0.2457 C   0  0  0  0  0  0  0  0  0  0  0  0
   -0.0131   -2.3167   -0.9034 H   0  0  0  0  0  0  0  0  0  0  0  0
   -1.7618   -2.1618   -0.5863 H   0  0  0  0  0  0  0  0  0  0  0  0
   -0.9234   -3.6923   -0.2482 H   0  0  0  0  0  0  0  0  0  0  0  0
   -1.6622   -2.5286    1.9888 C   0  0  0  0  0  0  0  0  0  0  0  0
   -1.4467   -2.2829    3.0251 H   0  0  0  0  0  0  0  0  0  0  0  0
   -1.8224   -3.6026    1.9141 H   0  0  0  0  0  0  0  0  0  0  0  0
   -2.5605   -2.0083    1.6570 H   0  0  0  0  0  0  0  0  0  0  0  0
    1.6899    0.2943    2.4234 H   0  0  0  0  0  0  0  0  0  0  0  0
    3.1773   -1.3165   -1.1603 C   0  0  0  0  0  0  0  0  0  0  0  0
    1.9487   -1.4270   -1.1562 O   0  0  0  0  0  0  0  0  0  0  0  0
    3.8057   -0.3198   -0.5216 N   0  0  0  0  0  0  0  0  0  0  0  0
    3.2619    0.3102    0.0655 H   0  0  0  0  0  0  0  0  0  0  0  0
    4.8068   -0.2861   -0.4613 H   0  0  0  0  0  0  0  0  0  0  0  0
    3.9565   -2.2154   -1.8112 N   0  0  0  0  0  0  0  0  0  0  0  0
    4.9497   -2.0977   -1.8919 H   0  0  0  0  0  0  0  0  0  0  0  0
    3.5149   -2.9207   -2.3730 H   0  0  0  0  0  0  0  0  0  0  0  0
    2.0334    2.5736    0.9749 C   0  0  0  0  0  0  0  0  0  0  0  0
    2.3141    1.3800    1.1091 O   0  0  0  0  0  0  0  0  0  0  0  0
    2.7914    3.5343    1.5559 N   0  0  0  0  0  0  0  0  0  0  0  0
    3.5279    3.2499    2.1772 H   0  0  0  0  0  0  0  0  0  0  0  0
    2.5292    4.5028    1.5447 H   0  0  0  0  0  0  0  0  0  0  0  0
    0.9818    2.9881    0.2519 N   0  0  0  0  0  0  0  0  0  0  0  0
    0.7965    3.9656    0.1209 H   0  0  0  0  0  0  0  0  0  0  0  0
    0.4024    2.3205   -0.2514 H   0  0  0  0  0  0  0  0  0  0  0  0
   -0.7286    0.9903   -2.4196 C   0  0  0  0  0  0  0  0  0  0  0  0
   -0.8384    1.4550   -1.2833 O   0  0  0  0  0  0  0  0  0  0  0  0
   -1.6043    1.3291   -3.3991 N   0  0  0  0  0  0  0  0  0  0  0  0
   -2.2847    2.0438   -3.2141 H   0  0  0  0  0  0  0  0  0  0  0  0
   -1.4829    1.0282   -4.3485 H   0  0  0  0  0  0  0  0  0  0  0  0
    0.2454    0.1341   -2.7646 N   0  0  0  0  0  0  0  0  0  0  0  0
    0.2634   -0.2755   -3.6809 H   0  0  0  0  0  0  0  0  0  0  0  0
    0.8550   -0.2737   -2.0601 H   0  0  0  0  0  0  0  0  0  0  0  0
   -4.0532    0.2846   -0.0421 C   0  0  0  0  0  0  0  0  0  0  0  0
   -3.3588   -0.7159    0.0967 O   0  0  0  0  0  0  0  0  0  0  0  0
   -5.4016    0.2406    0.1052 N   0  0  0  0  0  0  0  0  0  0  0  0
   -5.8207   -0.6194    0.4100 H   0  0  0  0  0  0  0  0  0  0  0  0
   -5.9703    1.0670    0.0929 H   0  0  0  0  0  0  0  0  0  0  0  0
   -3.5266    1.4913   -0.3405 N   0  0  0  0  0  0  0  0  0  0  0  0
   -4.1168    2.2844   -0.5121 H   0  0  0  0  0  0  0  0  0  0  0  0
   -2.5424    1.5512   -0.5902 H   0  0  0  0  0  0  0  0  0  0  0  0
  1  2  1  0  0  0  0
  2  3  1  0  0  0  0
  2  4  1  0  0  0  0
  2  5  1  0  0  0  0
  5  6  1  0  0  0  0
  5  7  1  0  0  0  0
  5  8  1  0  0  0  0
  8  9  1  0  0  0  0
  9 10  1  0  0  0  0
  9 11  1  0  0  0  0
  9 12  1  0  0  0  0
  8 13  1  0  0  0  0
 13 14  1  0  0  0  0
 13 15  1  0  0  0  0
 13 16  1  0  0  0  0
  8 17  1  0  0  0  0
 17 18  1  0  0  0  0
 17 19  1  0  0  0  0
 17 20  1  0  0  0  0
  1 21  1  0  0  0  0
 22 23  4  0  0  0  0
 22 24  4  0  0  0  0
 24 25  1  0  0  0  0
 24 26  1  0  0  0  0
 22 27  4  0  0  0  0
 27 28  1  0  0  0  0
 27 29  1  0  0  0  0
 30 31  4  0  0  0  0
 30 32  4  0  0  0  0
 32 33  1  0  0  0  0
 32 34  1  0  0  0  0
 30 35  4  0  0  0  0
 35 36  1  0  0  0  0
 35 37  1  0  0  0  0
 38 39  4  0  0  0  0
 38 40  4  0  0  0  0
 40 41  1  0  0  0  0
 40 42  1  0  0  0  0
 38 43  4  0  0  0  0
 43 44  1  0  0  0  0
 43 45  1  0  0  0  0
 46 47  2  0  0  0  0
 46 48  1  0  0  0  0
 48 49  1  0  0  0  0
 48 50  1  0  0  0  0
 46 51  4  0  0  0  0
 51 52  1  0  0  0  0
 51 53  1  0  0  0  0
M  CHG  1   1   1
M  END
