  53

 O          3.0902343495        0.0081562009       -0.1918905385
 C          2.9799411370        1.3470225845       -0.5685307039
 H          3.8191560304        1.8723742971       -0.1035445287
 H          3.0821334520        1.4587877233       -1.6572452332
 C          1.6436793512        2.0126128805       -0.1954769481
 H          0.8245595649        1.5334059383       -0.7383092422
 H          1.7040618481        3.0579463207       -0.5050489947
 N          1.2747868061        1.9736113335        1.2450086034
 C          0.8211216387        0.6234709609        1.6236577660
 H         -0.0424536180        0.3604638572        1.0152436974
 H          0.5423440422        0.6349295582        2.6753906124
 H          1.6208390504       -0.0932841048        1.4546696851
 C          0.1492355911        2.8987232107        1.4632124398
 H         -0.6806870315        2.6020989549        0.8242014557
 H          0.4467310747        3.9189400007        1.2299403905
 H         -0.1475272671        2.8385220197        2.5091489595
 C          2.3933697292        2.3631706050        2.1155203533
 H          2.7778826960        3.3381523648        1.8220952658
 H          3.1876642562        1.6234493201        2.0536889289
 H          2.0277043637        2.4093759691        3.1408770808
 H          2.4401629981       -0.5118827609       -0.7263175479
 C          1.6923989499       -2.3219869470       -2.3476060578
 O          1.3479497213       -1.3033579058       -1.7395062888
 N          2.9630490470       -2.7776006070       -2.2591325335
 H          3.6101575206       -2.2939758927       -1.6607407575
 H          3.2641053430       -3.6216317136       -2.7098804549
 N          0.8470232882       -3.0234591336       -3.1163564201
 H          1.1637322711       -3.8206691263       -3.6372113358
 H         -0.1151391011       -2.7260474877       -3.2424252260
 C          0.0950549643        2.0612607588        5.6814334071
 O          0.3970297163        2.0526689103        4.4965954335
 N          0.7035179098        1.2578919470        6.5873577545
 H          1.4887102565        0.7073432092        6.2895341603
 H          0.5299592572        1.3388458494        7.5722808144
 N         -0.8692368143        2.8744324042        6.1759053890
 H         -1.1837897161        2.8107659574        7.1265542769
 H         -1.4158497824        3.4181868982        5.5326607673
 C         -2.9742179394       -2.9905816379       -3.0364625234
 O         -1.9718836871       -2.4739212465       -3.5202078465
 N         -3.2856792802       -4.2902845458       -3.2689875675
 H         -2.7604976254       -4.7785441338       -3.9730593138
 H         -4.1759482646       -4.6724456606       -3.0053676155
 N         -3.8211742921       -2.3129149030       -2.2318654864
 H         -4.5944079826       -2.7702992557       -1.7848214236
 H         -3.5930392602       -1.3681093967       -1.9500264174
 C         -1.7998372177        0.6360382266       -1.6548864755
 O         -1.3893292285        1.1644556150       -0.6297759197
 N         -3.1468960698        0.6582518377       -1.9874793957
 H         -3.6918554138        1.3355945502       -1.4742597791
 H         -3.3651099786        0.6152223180       -2.9716764101
 N         -1.0135322304       -0.0084287323       -2.5313524572
 H         -1.4406828594       -0.6580505081       -3.1832378969
 H         -0.0947950340       -0.3058690534       -2.2067641221
