 xtb: 6.6.1 (unknown-commit)
          01102418333D

 53 48  0     0  0            999 V2000
    3.0902    0.0081   -0.1919 O   0  0  0  0  0  0  0  0  0  0  0  0
    2.9799    1.3470   -0.5685 C   0  0  0  0  0  0  0  0  0  0  0  0
    3.8192    1.8724   -0.1036 H   0  0  0  0  0  0  0  0  0  0  0  0
    3.0821    1.4588   -1.6573 H   0  0  0  0  0  0  0  0  0  0  0  0
    1.6437    2.0126   -0.1955 C   0  0  0  0  0  0  0  0  0  0  0  0
    0.8246    1.5334   -0.7383 H   0  0  0  0  0  0  0  0  0  0  0  0
    1.7041    3.0579   -0.5051 H   0  0  0  0  0  0  0  0  0  0  0  0
    1.2748    1.9736    1.2450 N   0  0  0  0  0  0  0  0  0  0  0  0
    0.8211    0.6235    1.6237 C   0  0  0  0  0  0  0  0  0  0  0  0
   -0.0424    0.3605    1.0152 H   0  0  0  0  0  0  0  0  0  0  0  0
    0.5424    0.6349    2.6754 H   0  0  0  0  0  0  0  0  0  0  0  0
    1.6208   -0.0933    1.4547 H   0  0  0  0  0  0  0  0  0  0  0  0
    0.1493    2.8987    1.4632 C   0  0  0  0  0  0  0  0  0  0  0  0
   -0.6807    2.6021    0.8242 H   0  0  0  0  0  0  0  0  0  0  0  0
    0.4468    3.9189    1.2299 H   0  0  0  0  0  0  0  0  0  0  0  0
   -0.1475    2.8385    2.5091 H   0  0  0  0  0  0  0  0  0  0  0  0
    2.3934    2.3632    2.1155 C   0  0  0  0  0  0  0  0  0  0  0  0
    2.7779    3.3381    1.8221 H   0  0  0  0  0  0  0  0  0  0  0  0
    3.1877    1.6234    2.0537 H   0  0  0  0  0  0  0  0  0  0  0  0
    2.0277    2.4094    3.1409 H   0  0  0  0  0  0  0  0  0  0  0  0
    2.4402   -0.5119   -0.7263 H   0  0  0  0  0  0  0  0  0  0  0  0
    1.6924   -2.3220   -2.3476 C   0  0  0  0  0  0  0  0  0  0  0  0
    1.3479   -1.3034   -1.7395 O   0  0  0  0  0  0  0  0  0  0  0  0
    2.9630   -2.7776   -2.2591 N   0  0  0  0  0  0  0  0  0  0  0  0
    3.6101   -2.2940   -1.6607 H   0  0  0  0  0  0  0  0  0  0  0  0
    3.2641   -3.6217   -2.7099 H   0  0  0  0  0  0  0  0  0  0  0  0
    0.8470   -3.0235   -3.1164 N   0  0  0  0  0  0  0  0  0  0  0  0
    1.1637   -3.8207   -3.6372 H   0  0  0  0  0  0  0  0  0  0  0  0
   -0.1152   -2.7261   -3.2424 H   0  0  0  0  0  0  0  0  0  0  0  0
    0.0951    2.0613    5.6814 C   0  0  0  0  0  0  0  0  0  0  0  0
    0.3971    2.0527    4.4966 O   0  0  0  0  0  0  0  0  0  0  0  0
    0.7035    1.2579    6.5874 N   0  0  0  0  0  0  0  0  0  0  0  0
    1.4887    0.7073    6.2895 H   0  0  0  0  0  0  0  0  0  0  0  0
    0.5300    1.3389    7.5723 H   0  0  0  0  0  0  0  0  0  0  0  0
   -0.8692    2.8744    6.1759 N   0  0  0  0  0  0  0  0  0  0  0  0
   -1.1838    2.8108    7.1266 H   0  0  0  0  0  0  0  0  0  0  0  0
   -1.4158    3.4182    5.5327 H   0  0  0  0  0  0  0  0  0  0  0  0
   -2.9742   -2.9906   -3.0364 C   0  0  0  0  0  0  0  0  0  0  0  0
   -1.9719   -2.4739   -3.5202 O   0  0  0  0  0  0  0  0  0  0  0  0
   -3.2857   -4.2903   -3.2690 N   0  0  0  0  0  0  0  0  0  0  0  0
   -2.7605   -4.7785   -3.9730 H   0  0  0  0  0  0  0  0  0  0  0  0
   -4.1760   -4.6724   -3.0053 H   0  0  0  0  0  0  0  0  0  0  0  0
   -3.8212   -2.3129   -2.2318 N   0  0  0  0  0  0  0  0  0  0  0  0
   -4.5944   -2.7703   -1.7848 H   0  0  0  0  0  0  0  0  0  0  0  0
   -3.5931   -1.3681   -1.9500 H   0  0  0  0  0  0  0  0  0  0  0  0
   -1.7998    0.6360   -1.6549 C   0  0  0  0  0  0  0  0  0  0  0  0
   -1.3893    1.1645   -0.6298 O   0  0  0  0  0  0  0  0  0  0  0  0
   -3.1469    0.6583   -1.9875 N   0  0  0  0  0  0  0  0  0  0  0  0
   -3.6919    1.3356   -1.4742 H   0  0  0  0  0  0  0  0  0  0  0  0
   -3.3651    0.6152   -2.9717 H   0  0  0  0  0  0  0  0  0  0  0  0
   -1.0135   -0.0084   -2.5313 N   0  0  0  0  0  0  0  0  0  0  0  0
   -1.4407   -0.6580   -3.1832 H   0  0  0  0  0  0  0  0  0  0  0  0
   -0.0948   -0.3059   -2.2068 H   0  0  0  0  0  0  0  0  0  0  0  0
  1  2  1  0  0  0  0
  2  3  1  0  0  0  0
  2  4  1  0  0  0  0
  2  5  1  0  0  0  0
  5  6  1  0  0  0  0
  5  7  1  0  0  0  0
  5  8  1  0  0  0  0
  8  9  1  0  0  0  0
  9 10  1  0  0  0  0
  9 11  1  0  0  0  0
  9 12  1  0  0  0  0
  8 13  1  0  0  0  0
 13 14  1  0  0  0  0
 13 15  1  0  0  0  0
 13 16  1  0  0  0  0
  8 17  1  0  0  0  0
 17 18  1  0  0  0  0
 17 19  1  0  0  0  0
 17 20  1  0  0  0  0
  1 21  1  0  0  0  0
 22 23  4  0  0  0  0
 22 24  4  0  0  0  0
 24 25  1  0  0  0  0
 24 26  1  0  0  0  0
 22 27  4  0  0  0  0
 27 28  1  0  0  0  0
 27 29  1  0  0  0  0
 30 31  2  0  0  0  0
 30 32  4  0  0  0  0
 32 33  1  0  0  0  0
 32 34  1  0  0  0  0
 30 35  4  0  0  0  0
 35 36  1  0  0  0  0
 35 37  1  0  0  0  0
 38 39  2  0  0  0  0
 38 40  4  0  0  0  0
 40 41  1  0  0  0  0
 40 42  1  0  0  0  0
 38 43  4  0  0  0  0
 43 44  1  0  0  0  0
 43 45  1  0  0  0  0
 46 47  2  0  0  0  0
 46 48  1  0  0  0  0
 48 49  1  0  0  0  0
 48 50  1  0  0  0  0
 46 51  4  0  0  0  0
 51 52  1  0  0  0  0
 51 53  1  0  0  0  0
M  CHG  1   1   1
M  END
