  53

 O         -0.6132315964        0.8977600015       -2.2942832904
 C          0.2789319035        1.0097782952       -1.2203211321
 H          1.2845009902        0.8946970070       -1.6307302250
 H          0.2157936455        2.0105785887       -0.7707712878
 C          0.0261149246        0.0117586978       -0.0840736085
 H         -0.9996214971        0.1210680979        0.2817017521
 H          0.7238953797        0.2432982174        0.7218365429
 N          0.1983201831       -1.4252476947       -0.4321986015
 C          0.1257107592       -2.1932458122        0.8235085315
 H         -0.8067091883       -1.9484922570        1.3291612235
 H          0.9723696166       -1.9515556320        1.4670260316
 H          0.1414904200       -3.2587611429        0.6034555539
 C          1.4924888076       -1.6677347345       -1.0878671925
 H          1.4617641954       -1.3170888272       -2.1168249546
 H          1.7093252538       -2.7336629810       -1.0885313617
 H          2.2876836239       -1.1388039730       -0.5624034721
 C         -0.8979336895       -1.8661519876       -1.3115308197
 H         -0.9058948428       -1.2667664364       -2.2193117995
 H         -1.8413382013       -1.7333454347       -0.7828356600
 H         -0.7672530212       -2.9153877174       -1.5676060034
 H         -1.5183661852        1.1143155110       -1.9659701999
 C          3.3455662144        1.3478845206        0.7096333292
 O          3.6186038238        0.4772831995       -0.1148204810
 N          3.5613781038        2.6597809428        0.4464192154
 H          4.0562372764        2.8959957737       -0.3952343404
 H          3.4465490683        3.3699987912        1.1460289343
 N          2.7307424806        1.0538167954        1.8757280588
 H          2.6607171570        1.7423554924        2.6037243501
 H          2.7051721689        0.0662657630        2.1518375993
 C         -3.3620441675        2.6127616868       -2.5648951093
 O         -3.0744088709        1.8257612365       -1.6619408475
 N         -2.5128418589        2.8709374053       -3.5786837303
 H         -1.6474228616        2.3553597383       -3.6218154334
 H         -2.7675022850        3.4572080609       -4.3520088975
 N         -4.5450887447        3.2652417065       -2.5879284717
 H         -4.7617961359        3.9527874340       -3.2857843896
 H         -5.1768983072        3.1549110075       -1.8156002722
 C         -3.8736938628       -0.5007574214        1.2040801025
 O         -2.7386032718       -0.8997489133        0.9716358290
 N         -4.4087904137        0.5670194343        0.5771694166
 H         -3.9050819230        0.9921156122       -0.1940663737
 H         -5.3757334646        0.8032730566        0.7052076552
 N         -4.6724713087       -1.1219770274        2.1116071773
 H         -5.5426939429       -0.7215442956        2.4110581388
 H         -4.2651765327       -1.8376737078        2.6867217291
 C          3.8347090554       -2.2655153811        2.0920987883
 O          2.7874083163       -1.6813661016        2.3761959237
 N          4.2179533432       -3.3800015768        2.7617423675
 H          3.6946295916       -3.6421357215        3.5781798840
 H          5.1200376013       -3.7975469291        2.6233895769
 N          4.6191295281       -1.8667065408        1.0766875976
 H          5.4869573685       -2.3231965096        0.8657077161
 H          4.3576486485       -1.0321908654        0.5518637208
