 xtb: 6.6.1 (unknown-commit)
          01102415383D

 53 48  0     0  0            999 V2000
   -0.6132    0.8978   -2.2943 O   0  0  0  0  0  0  0  0  0  0  0  0
    0.2789    1.0098   -1.2203 C   0  0  0  0  0  0  0  0  0  0  0  0
    1.2845    0.8947   -1.6307 H   0  0  0  0  0  0  0  0  0  0  0  0
    0.2158    2.0106   -0.7708 H   0  0  0  0  0  0  0  0  0  0  0  0
    0.0261    0.0118   -0.0841 C   0  0  0  0  0  0  0  0  0  0  0  0
   -0.9996    0.1211    0.2817 H   0  0  0  0  0  0  0  0  0  0  0  0
    0.7239    0.2433    0.7218 H   0  0  0  0  0  0  0  0  0  0  0  0
    0.1983   -1.4252   -0.4322 N   0  0  0  0  0  0  0  0  0  0  0  0
    0.1257   -2.1932    0.8235 C   0  0  0  0  0  0  0  0  0  0  0  0
   -0.8067   -1.9485    1.3292 H   0  0  0  0  0  0  0  0  0  0  0  0
    0.9724   -1.9516    1.4670 H   0  0  0  0  0  0  0  0  0  0  0  0
    0.1415   -3.2588    0.6035 H   0  0  0  0  0  0  0  0  0  0  0  0
    1.4925   -1.6677   -1.0879 C   0  0  0  0  0  0  0  0  0  0  0  0
    1.4617   -1.3171   -2.1168 H   0  0  0  0  0  0  0  0  0  0  0  0
    1.7093   -2.7337   -1.0885 H   0  0  0  0  0  0  0  0  0  0  0  0
    2.2877   -1.1388   -0.5624 H   0  0  0  0  0  0  0  0  0  0  0  0
   -0.8979   -1.8661   -1.3115 C   0  0  0  0  0  0  0  0  0  0  0  0
   -0.9059   -1.2668   -2.2193 H   0  0  0  0  0  0  0  0  0  0  0  0
   -1.8414   -1.7333   -0.7828 H   0  0  0  0  0  0  0  0  0  0  0  0
   -0.7673   -2.9154   -1.5676 H   0  0  0  0  0  0  0  0  0  0  0  0
   -1.5184    1.1143   -1.9660 H   0  0  0  0  0  0  0  0  0  0  0  0
    3.3456    1.3479    0.7096 C   0  0  0  0  0  0  0  0  0  0  0  0
    3.6186    0.4773   -0.1148 O   0  0  0  0  0  0  0  0  0  0  0  0
    3.5614    2.6598    0.4464 N   0  0  0  0  0  0  0  0  0  0  0  0
    4.0563    2.8960   -0.3953 H   0  0  0  0  0  0  0  0  0  0  0  0
    3.4466    3.3700    1.1460 H   0  0  0  0  0  0  0  0  0  0  0  0
    2.7308    1.0538    1.8757 N   0  0  0  0  0  0  0  0  0  0  0  0
    2.6607    1.7423    2.6037 H   0  0  0  0  0  0  0  0  0  0  0  0
    2.7052    0.0663    2.1518 H   0  0  0  0  0  0  0  0  0  0  0  0
   -3.3620    2.6128   -2.5649 C   0  0  0  0  0  0  0  0  0  0  0  0
   -3.0744    1.8258   -1.6619 O   0  0  0  0  0  0  0  0  0  0  0  0
   -2.5128    2.8709   -3.5787 N   0  0  0  0  0  0  0  0  0  0  0  0
   -1.6474    2.3554   -3.6218 H   0  0  0  0  0  0  0  0  0  0  0  0
   -2.7675    3.4572   -4.3520 H   0  0  0  0  0  0  0  0  0  0  0  0
   -4.5451    3.2653   -2.5879 N   0  0  0  0  0  0  0  0  0  0  0  0
   -4.7618    3.9528   -3.2858 H   0  0  0  0  0  0  0  0  0  0  0  0
   -5.1769    3.1549   -1.8156 H   0  0  0  0  0  0  0  0  0  0  0  0
   -3.8737   -0.5007    1.2041 C   0  0  0  0  0  0  0  0  0  0  0  0
   -2.7386   -0.8997    0.9716 O   0  0  0  0  0  0  0  0  0  0  0  0
   -4.4088    0.5670    0.5772 N   0  0  0  0  0  0  0  0  0  0  0  0
   -3.9051    0.9921   -0.1941 H   0  0  0  0  0  0  0  0  0  0  0  0
   -5.3757    0.8033    0.7052 H   0  0  0  0  0  0  0  0  0  0  0  0
   -4.6725   -1.1219    2.1116 N   0  0  0  0  0  0  0  0  0  0  0  0
   -5.5427   -0.7215    2.4111 H   0  0  0  0  0  0  0  0  0  0  0  0
   -4.2652   -1.8376    2.6867 H   0  0  0  0  0  0  0  0  0  0  0  0
    3.8347   -2.2655    2.0921 C   0  0  0  0  0  0  0  0  0  0  0  0
    2.7874   -1.6814    2.3762 O   0  0  0  0  0  0  0  0  0  0  0  0
    4.2179   -3.3800    2.7617 N   0  0  0  0  0  0  0  0  0  0  0  0
    3.6946   -3.6421    3.5782 H   0  0  0  0  0  0  0  0  0  0  0  0
    5.1200   -3.7976    2.6234 H   0  0  0  0  0  0  0  0  0  0  0  0
    4.6191   -1.8667    1.0767 N   0  0  0  0  0  0  0  0  0  0  0  0
    5.4869   -2.3232    0.8657 H   0  0  0  0  0  0  0  0  0  0  0  0
    4.3576   -1.0322    0.5519 H   0  0  0  0  0  0  0  0  0  0  0  0
  1  2  1  0  0  0  0
  2  3  1  0  0  0  0
  2  4  1  0  0  0  0
  2  5  1  0  0  0  0
  5  6  1  0  0  0  0
  5  7  1  0  0  0  0
  5  8  1  0  0  0  0
  8  9  1  0  0  0  0
  9 10  1  0  0  0  0
  9 11  1  0  0  0  0
  9 12  1  0  0  0  0
  8 13  1  0  0  0  0
 13 14  1  0  0  0  0
 13 15  1  0  0  0  0
 13 16  1  0  0  0  0
  8 17  1  0  0  0  0
 17 18  1  0  0  0  0
 17 19  1  0  0  0  0
 17 20  1  0  0  0  0
  1 21  1  0  0  0  0
 22 23  2  0  0  0  0
 22 24  4  0  0  0  0
 24 25  1  0  0  0  0
 24 26  1  0  0  0  0
 22 27  4  0  0  0  0
 27 28  1  0  0  0  0
 27 29  1  0  0  0  0
 30 31  4  0  0  0  0
 30 32  4  0  0  0  0
 32 33  1  0  0  0  0
 32 34  1  0  0  0  0
 30 35  4  0  0  0  0
 35 36  1  0  0  0  0
 35 37  1  0  0  0  0
 38 39  2  0  0  0  0
 38 40  4  0  0  0  0
 40 41  1  0  0  0  0
 40 42  1  0  0  0  0
 38 43  1  0  0  0  0
 43 44  1  0  0  0  0
 43 45  1  0  0  0  0
 46 47  4  0  0  0  0
 46 48  4  0  0  0  0
 48 49  1  0  0  0  0
 48 50  1  0  0  0  0
 46 51  4  0  0  0  0
 51 52  1  0  0  0  0
 51 53  1  0  0  0  0
M  CHG  1   1   1
M  END
