  53

 O          0.7863048123       -1.4786368216        2.3507582034
 C         -0.0760261262       -0.7396814335        1.5339724891
 H         -1.0638895801       -0.7854937455        1.9984823742
 H          0.2395464961        0.3114866043        1.4923456799
 C         -0.1061279930       -1.2131010199        0.0756122287
 H          0.9105847989       -1.1114957162       -0.3098475196
 H         -0.7784683016       -0.5630028323       -0.4842570450
 N         -0.5292274827       -2.6249820594       -0.1591036612
 C          0.4233116101       -3.5657479946        0.4556550212
 H          1.4384722984       -3.3136575579        0.1528587006
 H          0.1871599655       -4.5839767282        0.1532066360
 H          0.3723764835       -3.4841918353        1.5395238099
 C         -0.5546136888       -2.8419187493       -1.6148799283
 H          0.4226685988       -2.6254731147       -2.0407560282
 H         -1.3011498753       -2.1863375507       -2.0612041864
 H         -0.8157185611       -3.8756158095       -1.8346055258
 C         -1.8797965489       -2.8694849448        0.3693982505
 H         -1.8939103112       -2.7152733714        1.4446588049
 H         -2.1730729976       -3.8969560988        0.1617308752
 H         -2.5827559939       -2.1934825597       -0.1143264947
 H          1.6609506199       -1.4773747390        1.9144034492
 C          3.9594491129       -1.0519003410        0.7241419934
 O          2.9142705466       -1.6806597860        0.5654653315
 N          3.9779594254        0.2299881790        1.1279393055
 H          3.1085862082        0.7628447939        1.1727722783
 H          4.8440568285        0.7369643373        1.1570325403
 N          5.1671766073       -1.6282646173        0.4855483759
 H          6.0236252316       -1.1812245088        0.7587614166
 H          5.1916745352       -2.6209269669        0.3320098798
 C          1.7569508800        3.0854102632        0.6773840325
 O          1.7216221476        1.9257628464        1.0707825902
 N          2.8702174841        3.8584944104        0.8270025126
 H          3.5886769211        3.5260903409        1.4464461314
 H          2.8316226862        4.8497434756        0.6678440377
 N          0.6980142031        3.6796550240        0.0845305833
 H          0.8179370346        4.5555138139       -0.3934854898
 H         -0.0634084427        3.0745391767       -0.2296632142
 C         -3.1669568199       -0.1238783749       -2.7448015013
 O         -3.0579436923       -0.8037291033       -1.7180461887
 N         -3.7681858100       -0.6257871410       -3.8519604328
 H         -4.2681797812       -1.4933508410       -3.7674868316
 H         -3.9783578154       -0.0425928610       -4.6417426795
 N         -2.6532043233        1.1093590351       -2.8324026352
 H         -2.7394271062        1.6603863759       -3.6661644138
 H         -2.1660904371        1.5003205781       -2.0228282814
 C         -2.1454176554        1.7742754568        0.5747050827
 O         -1.4981144600        2.0044914747       -0.4513631464
 N         -2.0259493022        2.5536561826        1.6728104835
 H         -1.2789787038        3.2272899816        1.6909333274
 H         -2.4326797985        2.2833189298        2.5500622007
 N         -2.9983034878        0.7358693603        0.6488478569
 H         -3.6403816164        0.6444844767        1.4146209228
 H         -3.1514307504        0.1820314875       -0.1946581538
