 xtb: 6.6.1 (unknown-commit)
          01102418323D

 53 48  0     0  0            999 V2000
    0.7863   -1.4786    2.3508 O   0  0  0  0  0  0  0  0  0  0  0  0
   -0.0760   -0.7397    1.5340 C   0  0  0  0  0  0  0  0  0  0  0  0
   -1.0639   -0.7855    1.9985 H   0  0  0  0  0  0  0  0  0  0  0  0
    0.2396    0.3115    1.4923 H   0  0  0  0  0  0  0  0  0  0  0  0
   -0.1061   -1.2131    0.0756 C   0  0  0  0  0  0  0  0  0  0  0  0
    0.9106   -1.1115   -0.3098 H   0  0  0  0  0  0  0  0  0  0  0  0
   -0.7785   -0.5630   -0.4843 H   0  0  0  0  0  0  0  0  0  0  0  0
   -0.5292   -2.6250   -0.1591 N   0  0  0  0  0  0  0  0  0  0  0  0
    0.4233   -3.5657    0.4557 C   0  0  0  0  0  0  0  0  0  0  0  0
    1.4385   -3.3137    0.1529 H   0  0  0  0  0  0  0  0  0  0  0  0
    0.1871   -4.5840    0.1532 H   0  0  0  0  0  0  0  0  0  0  0  0
    0.3724   -3.4842    1.5395 H   0  0  0  0  0  0  0  0  0  0  0  0
   -0.5546   -2.8419   -1.6149 C   0  0  0  0  0  0  0  0  0  0  0  0
    0.4226   -2.6255   -2.0408 H   0  0  0  0  0  0  0  0  0  0  0  0
   -1.3012   -2.1863   -2.0612 H   0  0  0  0  0  0  0  0  0  0  0  0
   -0.8157   -3.8756   -1.8346 H   0  0  0  0  0  0  0  0  0  0  0  0
   -1.8798   -2.8695    0.3694 C   0  0  0  0  0  0  0  0  0  0  0  0
   -1.8939   -2.7153    1.4447 H   0  0  0  0  0  0  0  0  0  0  0  0
   -2.1731   -3.8969    0.1617 H   0  0  0  0  0  0  0  0  0  0  0  0
   -2.5828   -2.1935   -0.1143 H   0  0  0  0  0  0  0  0  0  0  0  0
    1.6609   -1.4774    1.9144 H   0  0  0  0  0  0  0  0  0  0  0  0
    3.9594   -1.0519    0.7241 C   0  0  0  0  0  0  0  0  0  0  0  0
    2.9143   -1.6807    0.5655 O   0  0  0  0  0  0  0  0  0  0  0  0
    3.9780    0.2300    1.1279 N   0  0  0  0  0  0  0  0  0  0  0  0
    3.1086    0.7628    1.1728 H   0  0  0  0  0  0  0  0  0  0  0  0
    4.8441    0.7369    1.1570 H   0  0  0  0  0  0  0  0  0  0  0  0
    5.1672   -1.6283    0.4855 N   0  0  0  0  0  0  0  0  0  0  0  0
    6.0236   -1.1813    0.7587 H   0  0  0  0  0  0  0  0  0  0  0  0
    5.1917   -2.6210    0.3320 H   0  0  0  0  0  0  0  0  0  0  0  0
    1.7570    3.0854    0.6774 C   0  0  0  0  0  0  0  0  0  0  0  0
    1.7216    1.9258    1.0708 O   0  0  0  0  0  0  0  0  0  0  0  0
    2.8702    3.8585    0.8270 N   0  0  0  0  0  0  0  0  0  0  0  0
    3.5887    3.5261    1.4464 H   0  0  0  0  0  0  0  0  0  0  0  0
    2.8317    4.8497    0.6678 H   0  0  0  0  0  0  0  0  0  0  0  0
    0.6980    3.6797    0.0845 N   0  0  0  0  0  0  0  0  0  0  0  0
    0.8180    4.5555   -0.3935 H   0  0  0  0  0  0  0  0  0  0  0  0
   -0.0634    3.0745   -0.2297 H   0  0  0  0  0  0  0  0  0  0  0  0
   -3.1670   -0.1239   -2.7448 C   0  0  0  0  0  0  0  0  0  0  0  0
   -3.0580   -0.8037   -1.7180 O   0  0  0  0  0  0  0  0  0  0  0  0
   -3.7682   -0.6258   -3.8519 N   0  0  0  0  0  0  0  0  0  0  0  0
   -4.2682   -1.4933   -3.7675 H   0  0  0  0  0  0  0  0  0  0  0  0
   -3.9784   -0.0426   -4.6417 H   0  0  0  0  0  0  0  0  0  0  0  0
   -2.6532    1.1094   -2.8324 N   0  0  0  0  0  0  0  0  0  0  0  0
   -2.7394    1.6604   -3.6662 H   0  0  0  0  0  0  0  0  0  0  0  0
   -2.1661    1.5003   -2.0228 H   0  0  0  0  0  0  0  0  0  0  0  0
   -2.1454    1.7743    0.5747 C   0  0  0  0  0  0  0  0  0  0  0  0
   -1.4981    2.0045   -0.4514 O   0  0  0  0  0  0  0  0  0  0  0  0
   -2.0259    2.5537    1.6728 N   0  0  0  0  0  0  0  0  0  0  0  0
   -1.2790    3.2273    1.6909 H   0  0  0  0  0  0  0  0  0  0  0  0
   -2.4327    2.2833    2.5501 H   0  0  0  0  0  0  0  0  0  0  0  0
   -2.9983    0.7359    0.6489 N   0  0  0  0  0  0  0  0  0  0  0  0
   -3.6404    0.6445    1.4146 H   0  0  0  0  0  0  0  0  0  0  0  0
   -3.1514    0.1820   -0.1946 H   0  0  0  0  0  0  0  0  0  0  0  0
  1  2  1  0  0  0  0
  2  3  1  0  0  0  0
  2  4  1  0  0  0  0
  2  5  1  0  0  0  0
  5  6  1  0  0  0  0
  5  7  1  0  0  0  0
  5  8  1  0  0  0  0
  8  9  1  0  0  0  0
  9 10  1  0  0  0  0
  9 11  1  0  0  0  0
  9 12  1  0  0  0  0
  8 13  1  0  0  0  0
 13 14  1  0  0  0  0
 13 15  1  0  0  0  0
 13 16  1  0  0  0  0
  8 17  1  0  0  0  0
 17 18  1  0  0  0  0
 17 19  1  0  0  0  0
 17 20  1  0  0  0  0
  1 21  1  0  0  0  0
 22 23  2  0  0  0  0
 22 24  4  0  0  0  0
 24 25  1  0  0  0  0
 24 26  1  0  0  0  0
 22 27  1  0  0  0  0
 27 28  1  0  0  0  0
 27 29  1  0  0  0  0
 30 31  2  0  0  0  0
 30 32  1  0  0  0  0
 32 33  1  0  0  0  0
 32 34  1  0  0  0  0
 30 35  4  0  0  0  0
 35 36  1  0  0  0  0
 35 37  1  0  0  0  0
 38 39  4  0  0  0  0
 38 40  4  0  0  0  0
 40 41  1  0  0  0  0
 40 42  1  0  0  0  0
 38 43  4  0  0  0  0
 43 44  1  0  0  0  0
 43 45  1  0  0  0  0
 46 47  4  0  0  0  0
 46 48  4  0  0  0  0
 48 49  1  0  0  0  0
 48 50  1  0  0  0  0
 46 51  4  0  0  0  0
 51 52  1  0  0  0  0
 51 53  1  0  0  0  0
M  CHG  1   1   1
M  END
