  53

 O         -0.6030309244        1.6515309333        1.8544201748
 C         -0.9933032355        2.0583767525        0.5735667767
 H         -1.7484135650        2.8368039637        0.7094704547
 H         -0.1501924083        2.5112783512        0.0364860431
 C         -1.5235197856        0.9337679496       -0.3289480373
 H         -0.7640053220        0.1549480684       -0.4409057824
 H         -1.7511489954        1.3725301264       -1.3020488022
 N         -2.7609026712        0.2443312490        0.1334699703
 C         -2.4834152263       -0.5452855066        1.3435047137
 H         -1.7287886839       -1.2934341911        1.1013140958
 H         -3.3913512125       -1.0418422891        1.6791073777
 H         -2.1087128159        0.1080749126        2.1282394589
 C         -3.1792358928       -0.6678621220       -0.9457798238
 H         -2.3696123898       -1.3668600460       -1.1499654955
 H         -3.4069064068       -0.0830318169       -1.8348998107
 H         -4.0635786731       -1.2225138973       -0.6397903296
 C         -3.8426522552        1.2070798359        0.3840282721
 H         -3.9750044055        1.8198624440       -0.5074303471
 H         -3.6023698059        1.8338443494        1.2388973932
 H         -4.7673121715        0.6725050159        0.5931617746
 H          0.2491145989        1.1602533848        1.7878148378
 C          4.9599695591       -0.8324655784        0.6405901287
 O          4.3657272984       -1.8828591507        0.8896924455
 N          6.2147611799       -0.8402972877        0.1348468054
 H          6.6888378826       -1.7226016756        0.0587353370
 H          6.7487409235        0.0005159804        0.0138489655
 N          4.3921346012        0.3721820335        0.8369801078
 H          4.8652922018        1.2240756503        0.5996323358
 H          3.4304948880        0.4193538275        1.1596819660
 C         -3.6338230809        2.6071440840       -3.6653950286
 O         -3.4294699434        2.0212068026       -2.6109311319
 N         -2.9113427142        2.3524718521       -4.7832704315
 H         -2.2573696376        1.5905381342       -4.7689353146
 H         -3.1479131432        2.7542337207       -5.6718301397
 N         -4.5924770069        3.5547180030       -3.7922161957
 H         -4.7025503671        4.0941146680       -4.6310294534
 H         -5.0983697779        3.8431011580       -2.9743545784
 C          0.6905975266       -2.4640518482       -0.5617395247
 O         -0.4560661744       -2.0336591867       -0.4617132306
 N          0.9432132910       -3.7406866809       -0.9425370636
 H          0.1809466596       -4.3078968804       -1.2672857544
 H          1.8807451064       -4.0526288141       -1.1186506069
 N          1.7735856488       -1.6906229287       -0.3312769627
 H          2.6800596300       -2.1121865326       -0.1805918496
 H          1.6236139378       -0.8387973580        0.1952302313
 C          1.6778834728       -0.5595965402        2.8491591439
 O          1.6792851694        0.1930532891        1.8596184729
 N          2.5220578279       -1.5883079853        2.9493449187
 H          3.1931050618       -1.7722487564        2.1946559330
 H          2.5140719244       -2.1962639712        3.7475663252
 N          0.7834656017       -0.3788667689        3.8484577998
 H          0.8467034484       -0.8985321975        4.7049507669
 H          0.2156257010        0.4514933185        3.8368383810
