 xtb: 6.6.1 (unknown-commit)
          01102415363D

 53 48  0     0  0            999 V2000
   -0.6030    1.6515    1.8544 O   0  0  0  0  0  0  0  0  0  0  0  0
   -0.9933    2.0584    0.5736 C   0  0  0  0  0  0  0  0  0  0  0  0
   -1.7484    2.8368    0.7095 H   0  0  0  0  0  0  0  0  0  0  0  0
   -0.1502    2.5113    0.0365 H   0  0  0  0  0  0  0  0  0  0  0  0
   -1.5235    0.9338   -0.3289 C   0  0  0  0  0  0  0  0  0  0  0  0
   -0.7640    0.1550   -0.4409 H   0  0  0  0  0  0  0  0  0  0  0  0
   -1.7511    1.3725   -1.3020 H   0  0  0  0  0  0  0  0  0  0  0  0
   -2.7609    0.2443    0.1335 N   0  0  0  0  0  0  0  0  0  0  0  0
   -2.4834   -0.5453    1.3435 C   0  0  0  0  0  0  0  0  0  0  0  0
   -1.7288   -1.2934    1.1013 H   0  0  0  0  0  0  0  0  0  0  0  0
   -3.3914   -1.0418    1.6791 H   0  0  0  0  0  0  0  0  0  0  0  0
   -2.1087    0.1081    2.1282 H   0  0  0  0  0  0  0  0  0  0  0  0
   -3.1792   -0.6678   -0.9458 C   0  0  0  0  0  0  0  0  0  0  0  0
   -2.3696   -1.3668   -1.1500 H   0  0  0  0  0  0  0  0  0  0  0  0
   -3.4069   -0.0830   -1.8349 H   0  0  0  0  0  0  0  0  0  0  0  0
   -4.0636   -1.2225   -0.6398 H   0  0  0  0  0  0  0  0  0  0  0  0
   -3.8426    1.2071    0.3840 C   0  0  0  0  0  0  0  0  0  0  0  0
   -3.9750    1.8199   -0.5074 H   0  0  0  0  0  0  0  0  0  0  0  0
   -3.6024    1.8339    1.2389 H   0  0  0  0  0  0  0  0  0  0  0  0
   -4.7673    0.6725    0.5932 H   0  0  0  0  0  0  0  0  0  0  0  0
    0.2491    1.1603    1.7878 H   0  0  0  0  0  0  0  0  0  0  0  0
    4.9600   -0.8325    0.6406 C   0  0  0  0  0  0  0  0  0  0  0  0
    4.3657   -1.8829    0.8897 O   0  0  0  0  0  0  0  0  0  0  0  0
    6.2148   -0.8403    0.1348 N   0  0  0  0  0  0  0  0  0  0  0  0
    6.6888   -1.7226    0.0587 H   0  0  0  0  0  0  0  0  0  0  0  0
    6.7487    0.0005    0.0138 H   0  0  0  0  0  0  0  0  0  0  0  0
    4.3921    0.3722    0.8370 N   0  0  0  0  0  0  0  0  0  0  0  0
    4.8653    1.2241    0.5996 H   0  0  0  0  0  0  0  0  0  0  0  0
    3.4305    0.4193    1.1597 H   0  0  0  0  0  0  0  0  0  0  0  0
   -3.6338    2.6072   -3.6654 C   0  0  0  0  0  0  0  0  0  0  0  0
   -3.4295    2.0212   -2.6109 O   0  0  0  0  0  0  0  0  0  0  0  0
   -2.9113    2.3525   -4.7833 N   0  0  0  0  0  0  0  0  0  0  0  0
   -2.2574    1.5905   -4.7689 H   0  0  0  0  0  0  0  0  0  0  0  0
   -3.1479    2.7542   -5.6718 H   0  0  0  0  0  0  0  0  0  0  0  0
   -4.5925    3.5547   -3.7922 N   0  0  0  0  0  0  0  0  0  0  0  0
   -4.7025    4.0941   -4.6310 H   0  0  0  0  0  0  0  0  0  0  0  0
   -5.0984    3.8431   -2.9743 H   0  0  0  0  0  0  0  0  0  0  0  0
    0.6906   -2.4641   -0.5617 C   0  0  0  0  0  0  0  0  0  0  0  0
   -0.4561   -2.0337   -0.4617 O   0  0  0  0  0  0  0  0  0  0  0  0
    0.9432   -3.7407   -0.9425 N   0  0  0  0  0  0  0  0  0  0  0  0
    0.1809   -4.3079   -1.2673 H   0  0  0  0  0  0  0  0  0  0  0  0
    1.8807   -4.0526   -1.1187 H   0  0  0  0  0  0  0  0  0  0  0  0
    1.7736   -1.6906   -0.3313 N   0  0  0  0  0  0  0  0  0  0  0  0
    2.6800   -2.1122   -0.1806 H   0  0  0  0  0  0  0  0  0  0  0  0
    1.6236   -0.8388    0.1952 H   0  0  0  0  0  0  0  0  0  0  0  0
    1.6779   -0.5596    2.8492 C   0  0  0  0  0  0  0  0  0  0  0  0
    1.6793    0.1930    1.8596 O   0  0  0  0  0  0  0  0  0  0  0  0
    2.5221   -1.5883    2.9493 N   0  0  0  0  0  0  0  0  0  0  0  0
    3.1931   -1.7723    2.1946 H   0  0  0  0  0  0  0  0  0  0  0  0
    2.5141   -2.1963    3.7476 H   0  0  0  0  0  0  0  0  0  0  0  0
    0.7835   -0.3789    3.8485 N   0  0  0  0  0  0  0  0  0  0  0  0
    0.8467   -0.8985    4.7049 H   0  0  0  0  0  0  0  0  0  0  0  0
    0.2156    0.4515    3.8368 H   0  0  0  0  0  0  0  0  0  0  0  0
  1  2  1  0  0  0  0
  2  3  1  0  0  0  0
  2  4  1  0  0  0  0
  2  5  1  0  0  0  0
  5  6  1  0  0  0  0
  5  7  1  0  0  0  0
  5  8  1  0  0  0  0
  8  9  1  0  0  0  0
  9 10  1  0  0  0  0
  9 11  1  0  0  0  0
  9 12  1  0  0  0  0
  8 13  1  0  0  0  0
 13 14  1  0  0  0  0
 13 15  1  0  0  0  0
 13 16  1  0  0  0  0
  8 17  1  0  0  0  0
 17 18  1  0  0  0  0
 17 19  1  0  0  0  0
 17 20  1  0  0  0  0
  1 21  1  0  0  0  0
 22 23  4  0  0  0  0
 22 24  4  0  0  0  0
 24 25  1  0  0  0  0
 24 26  1  0  0  0  0
 22 27  4  0  0  0  0
 27 28  1  0  0  0  0
 27 29  1  0  0  0  0
 30 31  2  0  0  0  0
 30 32  4  0  0  0  0
 32 33  1  0  0  0  0
 32 34  1  0  0  0  0
 30 35  4  0  0  0  0
 35 36  1  0  0  0  0
 35 37  1  0  0  0  0
 38 39  2  0  0  0  0
 38 40  4  0  0  0  0
 40 41  1  0  0  0  0
 40 42  1  0  0  0  0
 38 43  4  0  0  0  0
 43 44  1  0  0  0  0
 43 45  1  0  0  0  0
 46 47  4  0  0  0  0
 46 48  4  0  0  0  0
 48 49  1  0  0  0  0
 48 50  1  0  0  0  0
 46 51  4  0  0  0  0
 51 52  1  0  0  0  0
 51 53  1  0  0  0  0
M  CHG  1   1   1
M  END
