 xtb: 6.6.1 (unknown-commit)
          01102415343D

 53 48  0     0  0            999 V2000
   -1.1448   -2.0876   -2.4798 O   0  0  0  0  0  0  0  0  0  0  0  0
    0.2020   -1.7059   -2.4458 C   0  0  0  0  0  0  0  0  0  0  0  0
    0.7781   -2.5721   -2.7776 H   0  0  0  0  0  0  0  0  0  0  0  0
    0.3884   -0.8932   -3.1618 H   0  0  0  0  0  0  0  0  0  0  0  0
    0.6750   -1.1887   -1.0834 C   0  0  0  0  0  0  0  0  0  0  0  0
    0.0091   -0.3851   -0.7645 H   0  0  0  0  0  0  0  0  0  0  0  0
    1.6855   -0.7890   -1.1939 H   0  0  0  0  0  0  0  0  0  0  0  0
    0.7326   -2.1791    0.0265 N   0  0  0  0  0  0  0  0  0  0  0  0
   -0.6085   -2.6920    0.3465 C   0  0  0  0  0  0  0  0  0  0  0  0
   -1.2113   -1.8820    0.7546 H   0  0  0  0  0  0  0  0  0  0  0  0
   -0.5337   -3.4834    1.0898 H   0  0  0  0  0  0  0  0  0  0  0  0
   -1.0824   -3.0795   -0.5536 H   0  0  0  0  0  0  0  0  0  0  0  0
    1.2717   -1.4821    1.2064 C   0  0  0  0  0  0  0  0  0  0  0  0
    0.6502   -0.6195    1.4357 H   0  0  0  0  0  0  0  0  0  0  0  0
    2.2831   -1.1470    0.9833 H   0  0  0  0  0  0  0  0  0  0  0  0
    1.2851   -2.1561    2.0600 H   0  0  0  0  0  0  0  0  0  0  0  0
    1.6405   -3.2834   -0.3174 C   0  0  0  0  0  0  0  0  0  0  0  0
    2.6015   -2.8669   -0.6167 H   0  0  0  0  0  0  0  0  0  0  0  0
    1.2253   -3.8793   -1.1261 H   0  0  0  0  0  0  0  0  0  0  0  0
    1.7841   -3.9258    0.5494 H   0  0  0  0  0  0  0  0  0  0  0  0
   -1.6758   -1.3126   -2.2063 H   0  0  0  0  0  0  0  0  0  0  0  0
    4.2863    0.2602   -0.5188 C   0  0  0  0  0  0  0  0  0  0  0  0
    3.6934   -0.8109   -0.5691 O   0  0  0  0  0  0  0  0  0  0  0  0
    5.6377    0.3311   -0.6325 N   0  0  0  0  0  0  0  0  0  0  0  0
    6.1285   -0.5061   -0.8926 H   0  0  0  0  0  0  0  0  0  0  0  0
    6.1155    1.2066   -0.7447 H   0  0  0  0  0  0  0  0  0  0  0  0
    3.6437    1.4355   -0.3368 N   0  0  0  0  0  0  0  0  0  0  0  0
    4.1669    2.2763   -0.1728 H   0  0  0  0  0  0  0  0  0  0  0  0
    2.6483    1.4379   -0.1298 H   0  0  0  0  0  0  0  0  0  0  0  0
   -1.4029    0.8698    2.8518 C   0  0  0  0  0  0  0  0  0  0  0  0
   -1.6095   -0.1112    2.1433 O   0  0  0  0  0  0  0  0  0  0  0  0
   -1.7157    2.1246    2.4534 N   0  0  0  0  0  0  0  0  0  0  0  0
   -1.8784    2.2681    1.4650 H   0  0  0  0  0  0  0  0  0  0  0  0
   -1.3904    2.9150    2.9817 H   0  0  0  0  0  0  0  0  0  0  0  0
   -0.8597    0.7485    4.0868 N   0  0  0  0  0  0  0  0  0  0  0  0
   -0.8172    1.5263    4.7204 H   0  0  0  0  0  0  0  0  0  0  0  0
   -0.7744   -0.1742    4.4759 H   0  0  0  0  0  0  0  0  0  0  0  0
   -3.5636   -0.2594   -0.8705 C   0  0  0  0  0  0  0  0  0  0  0  0
   -2.4467    0.0186   -1.3238 O   0  0  0  0  0  0  0  0  0  0  0  0
   -4.5677   -0.6431   -1.6872 N   0  0  0  0  0  0  0  0  0  0  0  0
   -4.4009   -0.6835   -2.6770 H   0  0  0  0  0  0  0  0  0  0  0  0
   -5.4847   -0.8646   -1.3459 H   0  0  0  0  0  0  0  0  0  0  0  0
   -3.8311   -0.1652    0.4419 N   0  0  0  0  0  0  0  0  0  0  0  0
   -4.7038   -0.4958    0.8124 H   0  0  0  0  0  0  0  0  0  0  0  0
   -3.0392   -0.0792    1.0827 H   0  0  0  0  0  0  0  0  0  0  0  0
    0.0919    2.5818   -0.3107 C   0  0  0  0  0  0  0  0  0  0  0  0
    0.7943    1.6742    0.1115 O   0  0  0  0  0  0  0  0  0  0  0  0
    0.5759    3.8379   -0.4858 N   0  0  0  0  0  0  0  0  0  0  0  0
    1.5434    4.0185   -0.2891 H   0  0  0  0  0  0  0  0  0  0  0  0
    0.0217    4.5830   -0.8659 H   0  0  0  0  0  0  0  0  0  0  0  0
   -1.2420    2.4298   -0.5456 N   0  0  0  0  0  0  0  0  0  0  0  0
   -1.7097    3.1454   -1.0785 H   0  0  0  0  0  0  0  0  0  0  0  0
   -1.5829    1.4818   -0.7316 H   0  0  0  0  0  0  0  0  0  0  0  0
  1  2  1  0  0  0  0
  2  3  1  0  0  0  0
  2  4  1  0  0  0  0
  2  5  1  0  0  0  0
  5  6  1  0  0  0  0
  5  7  1  0  0  0  0
  5  8  1  0  0  0  0
  8  9  1  0  0  0  0
  9 10  1  0  0  0  0
  9 11  1  0  0  0  0
  9 12  1  0  0  0  0
  8 13  1  0  0  0  0
 13 14  1  0  0  0  0
 13 15  1  0  0  0  0
 13 16  1  0  0  0  0
  8 17  1  0  0  0  0
 17 18  1  0  0  0  0
 17 19  1  0  0  0  0
 17 20  1  0  0  0  0
  1 21  1  0  0  0  0
 22 23  2  0  0  0  0
 22 24  1  0  0  0  0
 24 25  1  0  0  0  0
 24 26  1  0  0  0  0
 22 27  4  0  0  0  0
 27 28  1  0  0  0  0
 27 29  1  0  0  0  0
 30 31  2  0  0  0  0
 30 32  4  0  0  0  0
 32 33  1  0  0  0  0
 32 34  1  0  0  0  0
 30 35  4  0  0  0  0
 35 36  1  0  0  0  0
 35 37  1  0  0  0  0
 38 39  4  0  0  0  0
 38 40  4  0  0  0  0
 40 41  1  0  0  0  0
 40 42  1  0  0  0  0
 38 43  4  0  0  0  0
 43 44  1  0  0  0  0
 43 45  1  0  0  0  0
 46 47  2  0  0  0  0
 46 48  4  0  0  0  0
 48 49  1  0  0  0  0
 48 50  1  0  0  0  0
 46 51  1  0  0  0  0
 51 52  1  0  0  0  0
 51 53  1  0  0  0  0
M  CHG  1   1   1
M  END
