 xtb: 6.6.1 (unknown-commit)
          01102415423D

 53 48  0     0  0            999 V2000
   -3.0640    0.0341    1.3471 O   0  0  0  0  0  0  0  0  0  0  0  0
   -2.6656    1.2590    1.8811 C   0  0  0  0  0  0  0  0  0  0  0  0
   -3.4751    1.9663    1.6802 H   0  0  0  0  0  0  0  0  0  0  0  0
   -2.5475    1.1924    2.9723 H   0  0  0  0  0  0  0  0  0  0  0  0
   -1.3238    1.7834    1.3409 C   0  0  0  0  0  0  0  0  0  0  0  0
   -0.5267    1.0961    1.6316 H   0  0  0  0  0  0  0  0  0  0  0  0
   -1.1397    2.7538    1.8062 H   0  0  0  0  0  0  0  0  0  0  0  0
   -1.2323    1.9481   -0.1346 N   0  0  0  0  0  0  0  0  0  0  0  0
   -1.1134    0.6359   -0.7946 C   0  0  0  0  0  0  0  0  0  0  0  0
   -0.2379    0.1214   -0.4032 H   0  0  0  0  0  0  0  0  0  0  0  0
   -1.0028    0.7963   -1.8651 H   0  0  0  0  0  0  0  0  0  0  0  0
   -2.0022    0.0427   -0.5949 H   0  0  0  0  0  0  0  0  0  0  0  0
   -0.0124    2.7141   -0.4441 C   0  0  0  0  0  0  0  0  0  0  0  0
    0.0706    2.8077   -1.5258 H   0  0  0  0  0  0  0  0  0  0  0  0
    0.8515    2.1784   -0.0520 H   0  0  0  0  0  0  0  0  0  0  0  0
   -0.0637    3.7053    0.0014 H   0  0  0  0  0  0  0  0  0  0  0  0
   -2.3970    2.6560   -0.6856 C   0  0  0  0  0  0  0  0  0  0  0  0
   -3.2919    2.0504   -0.5663 H   0  0  0  0  0  0  0  0  0  0  0  0
   -2.2206    2.8276   -1.7473 H   0  0  0  0  0  0  0  0  0  0  0  0
   -2.5321    3.6103   -0.1801 H   0  0  0  0  0  0  0  0  0  0  0  0
   -2.3729   -0.6309    1.5834 H   0  0  0  0  0  0  0  0  0  0  0  0
    2.1226    0.1222    1.9712 C   0  0  0  0  0  0  0  0  0  0  0  0
    1.6954    0.4888    0.8719 O   0  0  0  0  0  0  0  0  0  0  0  0
    1.3224   -0.4383    2.8971 N   0  0  0  0  0  0  0  0  0  0  0  0
    0.4508   -0.8489    2.5577 H   0  0  0  0  0  0  0  0  0  0  0  0
    1.7457   -0.8991    3.6838 H   0  0  0  0  0  0  0  0  0  0  0  0
    3.4009    0.3734    2.3418 N   0  0  0  0  0  0  0  0  0  0  0  0
    3.7954   -0.0379    3.1677 H   0  0  0  0  0  0  0  0  0  0  0  0
    4.0297    0.7656    1.6640 H   0  0  0  0  0  0  0  0  0  0  0  0
   -0.9668    2.7729   -4.6449 C   0  0  0  0  0  0  0  0  0  0  0  0
   -0.9602    2.5084   -3.4509 O   0  0  0  0  0  0  0  0  0  0  0  0
   -2.0502    2.5504   -5.4277 N   0  0  0  0  0  0  0  0  0  0  0  0
   -2.8331    2.0580   -5.0364 H   0  0  0  0  0  0  0  0  0  0  0  0
   -2.0204    2.6713   -6.4235 H   0  0  0  0  0  0  0  0  0  0  0  0
    0.1084    3.3075   -5.2730 N   0  0  0  0  0  0  0  0  0  0  0  0
    0.0630    3.6291   -6.2225 H   0  0  0  0  0  0  0  0  0  0  0  0
    0.8958    3.5899   -4.7174 H   0  0  0  0  0  0  0  0  0  0  0  0
   -1.1332   -2.8527    1.9882 C   0  0  0  0  0  0  0  0  0  0  0  0
   -1.0426   -1.6203    1.9347 O   0  0  0  0  0  0  0  0  0  0  0  0
   -2.3457   -3.4536    2.0029 N   0  0  0  0  0  0  0  0  0  0  0  0
   -3.1699   -2.8804    2.0550 H   0  0  0  0  0  0  0  0  0  0  0  0
   -2.4464   -4.4438    2.1311 H   0  0  0  0  0  0  0  0  0  0  0  0
   -0.0529   -3.6419    2.0405 N   0  0  0  0  0  0  0  0  0  0  0  0
   -0.1441   -4.6415    2.0171 H   0  0  0  0  0  0  0  0  0  0  0  0
    0.8710   -3.2439    1.8688 H   0  0  0  0  0  0  0  0  0  0  0  0
    2.8925   -2.6808    0.1299 C   0  0  0  0  0  0  0  0  0  0  0  0
    2.4764   -2.7241    1.2819 O   0  0  0  0  0  0  0  0  0  0  0  0
    2.5560   -1.6885   -0.7272 N   0  0  0  0  0  0  0  0  0  0  0  0
    2.1479   -0.8518   -0.3182 H   0  0  0  0  0  0  0  0  0  0  0  0
    3.0497   -1.5835   -1.5958 H   0  0  0  0  0  0  0  0  0  0  0  0
    3.7028   -3.6502   -0.3673 N   0  0  0  0  0  0  0  0  0  0  0  0
    3.9804   -3.6762   -1.3310 H   0  0  0  0  0  0  0  0  0  0  0  0
    3.8967   -4.4506    0.2073 H   0  0  0  0  0  0  0  0  0  0  0  0
  1  2  1  0  0  0  0
  2  3  1  0  0  0  0
  2  4  1  0  0  0  0
  2  5  1  0  0  0  0
  5  6  1  0  0  0  0
  5  7  1  0  0  0  0
  5  8  1  0  0  0  0
  8  9  1  0  0  0  0
  9 10  1  0  0  0  0
  9 11  1  0  0  0  0
  9 12  1  0  0  0  0
  8 13  1  0  0  0  0
 13 14  1  0  0  0  0
 13 15  1  0  0  0  0
 13 16  1  0  0  0  0
  8 17  1  0  0  0  0
 17 18  1  0  0  0  0
 17 19  1  0  0  0  0
 17 20  1  0  0  0  0
  1 21  1  0  0  0  0
 22 23  4  0  0  0  0
 22 24  4  0  0  0  0
 24 25  1  0  0  0  0
 24 26  1  0  0  0  0
 22 27  4  0  0  0  0
 27 28  1  0  0  0  0
 27 29  1  0  0  0  0
 30 31  2  0  0  0  0
 30 32  4  0  0  0  0
 32 33  1  0  0  0  0
 32 34  1  0  0  0  0
 30 35  4  0  0  0  0
 35 36  1  0  0  0  0
 35 37  1  0  0  0  0
 38 39  4  0  0  0  0
 38 40  4  0  0  0  0
 40 41  1  0  0  0  0
 40 42  1  0  0  0  0
 38 43  4  0  0  0  0
 43 44  1  0  0  0  0
 43 45  1  0  0  0  0
 46 47  2  0  0  0  0
 46 48  4  0  0  0  0
 48 49  1  0  0  0  0
 48 50  1  0  0  0  0
 46 51  1  0  0  0  0
 51 52  1  0  0  0  0
 51 53  1  0  0  0  0
M  CHG  1   1   1
M  END
