  53

 O          3.5966044756        0.4329709107        1.4229080312
 C          2.9594297858        0.7360235816        2.6257937262
 H          3.7398102155        0.7726033118        3.3915796249
 H          2.4907068281        1.7296589960        2.5854720960
 C          1.8397591128       -0.2403227120        3.0226648832
 H          1.0321006978       -0.2011499025        2.2850475884
 H          1.4495017358        0.0833394102        3.9890502563
 N          2.2272225292       -1.6761788106        3.1326188062
 C          1.1017934299       -2.3963977505        3.7553344575
 H          1.3199485480       -3.4614451690        3.7983856025
 H          0.2098842421       -2.2374697475        3.1471626574
 H          0.9262807475       -2.0304129772        4.7647224410
 C          3.4423727935       -1.8505776207        3.9415915445
 H          3.3240041370       -1.3654330392        4.9090855732
 H          4.2981988203       -1.4213927952        3.4250218388
 H          3.6295710150       -2.9110851339        4.1011773206
 C          2.4412279503       -2.2378814456        1.7858003695
 H          3.2426690329       -1.6975388310        1.2866414635
 H          1.5166379493       -2.1269149089        1.2198432083
 H          2.7005451748       -3.2915226255        1.8614056828
 H          2.9384791522        0.5297881419        0.6843354448
 C         -0.8387329279       -0.6470161907       -2.2926647072
 O         -0.8903131716        0.5604785660       -2.5630464529
 N         -1.9390068645       -1.4196515228       -2.3269159033
 H         -2.8409080473       -0.9512347704       -2.2463527232
 H         -1.8922765800       -2.3753691005       -2.0205878150
 N          0.3404866174       -1.2511634772       -2.0141802708
 H          0.3426646207       -2.1918030183       -1.6607833898
 H          1.1031812242       -0.6540199014       -1.7224958874
 C         -1.3205494789       -0.6311982428        0.8451248012
 O         -0.4921474378       -1.3848436200        1.3653793573
 N         -0.9661986152        0.5920659745        0.3795529579
 H          0.0119741982        0.7413651705        0.1582466270
 H         -1.6277443902        1.0972699626       -0.1858740409
 N         -2.6317450901       -0.9324365386        0.7882022874
 H         -3.2606189163       -0.4409805122        0.1646960434
 H         -2.9249312824       -1.8305386867        1.1304420704
 C          2.1498910703        1.7676609981       -1.2873674136
 O          1.8491247460        0.8143354752       -0.5450834200
 N          3.2750902248        2.4814500163       -1.0667402925
 H          3.9149908685        2.1746634597       -0.3532023632
 H          3.5738234515        3.2029782402       -1.6970416358
 N          1.3635103255        2.1254494557       -2.3025438403
 H          1.6007394493        2.8869193957       -2.9111269172
 H          0.5027048777        1.5892184810       -2.4739924130
 C         -4.3382176055        1.1899540133       -2.0381275512
 O         -4.0973964822        0.1457089191       -1.4284253813
 N         -5.5702841206        1.7494861569       -2.0099587171
 H         -6.3097981210        1.2506870929       -1.5485623011
 H         -5.8072619312        2.5512497629       -2.5645275430
 N         -3.3841335317        1.8448133427       -2.7215873303
 H         -3.5944720437        2.6519910079       -3.2786508899
 H         -2.4541814357        1.4271063819       -2.7812581517
