 xtb: 6.6.1 (unknown-commit)
          01102415373D

 53 48  0     0  0            999 V2000
    2.1561   -1.3894   -2.7730 O   0  0  0  0  0  0  0  0  0  0  0  0
    1.2056   -2.0722   -2.0060 C   0  0  0  0  0  0  0  0  0  0  0  0
    0.2558   -2.0032   -2.5414 H   0  0  0  0  0  0  0  0  0  0  0  0
    1.4676   -3.1392   -1.9353 H   0  0  0  0  0  0  0  0  0  0  0  0
    1.0958   -1.5654   -0.5646 C   0  0  0  0  0  0  0  0  0  0  0  0
    2.0954   -1.6102   -0.1248 H   0  0  0  0  0  0  0  0  0  0  0  0
    0.4189   -2.2181   -0.0090 H   0  0  0  0  0  0  0  0  0  0  0  0
    0.5946   -0.1761   -0.3875 N   0  0  0  0  0  0  0  0  0  0  0  0
    0.5651    0.1011    1.0579 C   0  0  0  0  0  0  0  0  0  0  0  0
   -0.1272   -0.5915    1.5352 H   0  0  0  0  0  0  0  0  0  0  0  0
    0.2299    1.1234    1.2153 H   0  0  0  0  0  0  0  0  0  0  0  0
    1.5596   -0.0228    1.4808 H   0  0  0  0  0  0  0  0  0  0  0  0
   -0.7758   -0.0441   -0.9025 C   0  0  0  0  0  0  0  0  0  0  0  0
   -0.7935   -0.1802   -1.9801 H   0  0  0  0  0  0  0  0  0  0  0  0
   -1.1493    0.9469   -0.6609 H   0  0  0  0  0  0  0  0  0  0  0  0
   -1.4047   -0.7890   -0.4185 H   0  0  0  0  0  0  0  0  0  0  0  0
    1.4625    0.8161   -1.0410 C   0  0  0  0  0  0  0  0  0  0  0  0
    1.4491    0.6715   -2.1189 H   0  0  0  0  0  0  0  0  0  0  0  0
    2.4866    0.6992   -0.6906 H   0  0  0  0  0  0  0  0  0  0  0  0
    1.0982    1.8141   -0.7997 H   0  0  0  0  0  0  0  0  0  0  0  0
    2.9499   -1.2638   -2.2012 H   0  0  0  0  0  0  0  0  0  0  0  0
    5.3229   -1.2464   -1.5822 C   0  0  0  0  0  0  0  0  0  0  0  0
    4.2311   -1.0147   -1.0668 O   0  0  0  0  0  0  0  0  0  0  0  0
    6.4748   -1.1380   -0.8857 N   0  0  0  0  0  0  0  0  0  0  0  0
    6.4284   -0.9073    0.0904 H   0  0  0  0  0  0  0  0  0  0  0  0
    7.3665   -1.3730   -1.2808 H   0  0  0  0  0  0  0  0  0  0  0  0
    5.4388   -1.6243   -2.8737 N   0  0  0  0  0  0  0  0  0  0  0  0
    6.3309   -1.7683   -3.3096 H   0  0  0  0  0  0  0  0  0  0  0  0
    4.6127   -1.6721   -3.4460 H   0  0  0  0  0  0  0  0  0  0  0  0
   -1.6440    3.5600   -0.6112 C   0  0  0  0  0  0  0  0  0  0  0  0
   -0.7033    3.1217    0.0574 O   0  0  0  0  0  0  0  0  0  0  0  0
   -1.4730    4.5903   -1.4714 N   0  0  0  0  0  0  0  0  0  0  0  0
   -0.5850    5.0591   -1.4862 H   0  0  0  0  0  0  0  0  0  0  0  0
   -2.2407    5.0064   -1.9655 H   0  0  0  0  0  0  0  0  0  0  0  0
   -2.8648    2.9995   -0.5619 N   0  0  0  0  0  0  0  0  0  0  0  0
   -3.6446    3.3918   -1.0564 H   0  0  0  0  0  0  0  0  0  0  0  0
   -3.0350    2.2488    0.1102 H   0  0  0  0  0  0  0  0  0  0  0  0
   -2.6678   -2.6201    1.3514 C   0  0  0  0  0  0  0  0  0  0  0  0
   -1.5166   -2.2549    1.1426 O   0  0  0  0  0  0  0  0  0  0  0  0
   -3.0024   -3.9371    1.3789 N   0  0  0  0  0  0  0  0  0  0  0  0
   -2.2578   -4.6114    1.3678 H   0  0  0  0  0  0  0  0  0  0  0  0
   -3.9049   -4.2447    1.6933 H   0  0  0  0  0  0  0  0  0  0  0  0
   -3.6773   -1.7469    1.5662 N   0  0  0  0  0  0  0  0  0  0  0  0
   -4.6305   -2.0629    1.5485 H   0  0  0  0  0  0  0  0  0  0  0  0
   -3.5039   -0.7552    1.4035 H   0  0  0  0  0  0  0  0  0  0  0  0
   -2.5877    1.3885    2.5209 C   0  0  0  0  0  0  0  0  0  0  0  0
   -3.0674    1.0210    1.4445 O   0  0  0  0  0  0  0  0  0  0  0  0
   -1.6159    2.3131    2.5854 N   0  0  0  0  0  0  0  0  0  0  0  0
   -1.2597    2.7136    1.7166 H   0  0  0  0  0  0  0  0  0  0  0  0
   -1.2713    2.6575    3.4620 H   0  0  0  0  0  0  0  0  0  0  0  0
   -3.0151    0.8680    3.6938 N   0  0  0  0  0  0  0  0  0  0  0  0
   -2.6101    1.1281    4.5738 H   0  0  0  0  0  0  0  0  0  0  0  0
   -3.7063    0.1400    3.6784 H   0  0  0  0  0  0  0  0  0  0  0  0
  1  2  1  0  0  0  0
  2  3  1  0  0  0  0
  2  4  1  0  0  0  0
  2  5  1  0  0  0  0
  5  6  1  0  0  0  0
  5  7  1  0  0  0  0
  5  8  1  0  0  0  0
  8  9  1  0  0  0  0
  9 10  1  0  0  0  0
  9 11  1  0  0  0  0
  9 12  1  0  0  0  0
  8 13  1  0  0  0  0
 13 14  1  0  0  0  0
 13 15  1  0  0  0  0
 13 16  1  0  0  0  0
  8 17  1  0  0  0  0
 17 18  1  0  0  0  0
 17 19  1  0  0  0  0
 17 20  1  0  0  0  0
  1 21  1  0  0  0  0
 22 23  2  0  0  0  0
 22 24  4  0  0  0  0
 24 25  1  0  0  0  0
 24 26  1  0  0  0  0
 22 27  4  0  0  0  0
 27 28  1  0  0  0  0
 27 29  1  0  0  0  0
 30 31  4  0  0  0  0
 30 32  4  0  0  0  0
 32 33  1  0  0  0  0
 32 34  1  0  0  0  0
 30 35  4  0  0  0  0
 35 36  1  0  0  0  0
 35 37  1  0  0  0  0
 38 39  2  0  0  0  0
 38 40  1  0  0  0  0
 40 41  1  0  0  0  0
 40 42  1  0  0  0  0
 38 43  4  0  0  0  0
 43 44  1  0  0  0  0
 43 45  1  0  0  0  0
 46 47  4  0  0  0  0
 46 48  4  0  0  0  0
 48 49  1  0  0  0  0
 48 50  1  0  0  0  0
 46 51  4  0  0  0  0
 51 52  1  0  0  0  0
 51 53  1  0  0  0  0
M  CHG  1   1   1
M  END
