  53

 O         -0.6005137022       -1.8477939764       -1.3588851840
 C          0.3290038204       -1.3165885784       -2.2605875676
 H          1.3345413297       -1.7092475133       -2.0477823103
 H          0.0420611346       -1.6762039051       -3.2521507271
 C          0.4534443734        0.2075887613       -2.2125220193
 H          1.2686046242        0.5191872532       -2.8698873491
 H          0.6969375268        0.5087874622       -1.1908426834
 N         -0.7442057780        0.9909428751       -2.6280427419
 C         -1.0438059778        0.7519512336       -4.0477076427
 H         -0.1554983651        0.9777164029       -4.6364448897
 H         -1.8594204243        1.3978214591       -4.3675478287
 H         -1.3355081996       -0.2830815095       -4.2073152157
 C         -0.4174635340        2.4182867366       -2.4592473496
 H          0.4016658954        2.6677725343       -3.1332663196
 H         -0.0894766502        2.6064552752       -1.4392289507
 H         -1.2853468307        3.0313514370       -2.6906088781
 C         -1.9085643037        0.6592647092       -1.7939446652
 H         -1.6537009155        0.8013469509       -0.7446084352
 H         -2.1904592235       -0.3817061789       -1.9393070929
 H         -2.7476700051        1.3021073722       -2.0537202731
 H         -0.4519160761       -1.4136348948       -0.4846806109
 C          2.1431331924        2.1111652230        0.9061752702
 O          1.7306326923        2.2396127428       -0.2427109750
 N          3.2403991443        2.7877712984        1.3457454924
 H          3.5858868996        3.5373209265        0.7721891982
 H          3.4717336686        2.8173098190        2.3227427200
 N          1.5456846616        1.2993032025        1.8000001941
 H          1.9985780265        1.0914794424        2.6721643200
 H          0.8277215146        0.6502085499        1.4701258893
 C          3.1357785223        2.3875339615       -3.8333796316
 O          2.0537424713        1.9208778090       -4.1730882684
 N          3.3966658877        2.7719693490       -2.5645888126
 H          2.7339155604        2.5717965380       -1.8203576794
 H          4.3275245243        3.0407321964       -2.3019420285
 N          4.1499892359        2.5429309926       -4.7226664246
 H          4.9834302582        3.0535349876       -4.4947615652
 H          3.9490727340        2.3809948494       -5.6935770663
 C         -3.2882707913       -3.6814703256        4.9851384771
 O         -2.7461247236       -2.9100933302        4.2037303025
 N         -3.8827306210       -3.2529514891        6.1236627335
 H         -3.9786530338       -2.2637051698        6.2689074959
 H         -4.4239029560       -3.8680186416        6.7033971027
 N         -3.3307252703       -5.0174922823        4.7667450827
 H         -3.6790746660       -5.6564226769        5.4578576262
 H         -2.8054845820       -5.3962524997        3.9989432897
 C         -1.0361636536       -1.1808391023        1.8801460227
 O         -0.4370313598       -0.5343308879        1.0024606941
 N         -1.1392620814       -0.7418645111        3.1475792270
 H         -0.8259434556        0.1806719272        3.3877841480
 H         -1.6884151615       -1.2797831531        3.8019687366
 N         -1.6059777469       -2.3680548327        1.6349139183
 H         -2.0977650937       -2.8331518880        2.3863423309
 H         -1.5552114178       -2.7746556823        0.7172971830
