 xtb: 6.6.1 (unknown-commit)
          01102418303D

 53 48  0     0  0            999 V2000
   -0.4697   -0.5010    1.9346 O   0  0  0  0  0  0  0  0  0  0  0  0
   -1.3052   -1.6150    1.8695 C   0  0  0  0  0  0  0  0  0  0  0  0
   -1.0347   -2.2591    2.7115 H   0  0  0  0  0  0  0  0  0  0  0  0
   -2.3576   -1.3240    2.0011 H   0  0  0  0  0  0  0  0  0  0  0  0
   -1.2398   -2.3864    0.5415 C   0  0  0  0  0  0  0  0  0  0  0  0
   -1.5740   -1.7416   -0.2766 H   0  0  0  0  0  0  0  0  0  0  0  0
   -1.9211   -3.2359    0.6217 H   0  0  0  0  0  0  0  0  0  0  0  0
    0.0990   -2.9000    0.1461 N   0  0  0  0  0  0  0  0  0  0  0  0
    0.9628   -1.7938   -0.3038 C   0  0  0  0  0  0  0  0  0  0  0  0
    1.9213   -2.2072   -0.6107 H   0  0  0  0  0  0  0  0  0  0  0  0
    1.1047   -1.0846    0.5077 H   0  0  0  0  0  0  0  0  0  0  0  0
    0.4824   -1.2959   -1.1445 H   0  0  0  0  0  0  0  0  0  0  0  0
   -0.0783   -3.8194   -0.9913 C   0  0  0  0  0  0  0  0  0  0  0  0
    0.9024   -4.1667   -1.3119 H   0  0  0  0  0  0  0  0  0  0  0  0
   -0.5686   -3.2830   -1.8021 H   0  0  0  0  0  0  0  0  0  0  0  0
   -0.6843   -4.6736   -0.6969 H   0  0  0  0  0  0  0  0  0  0  0  0
    0.7695   -3.6143    1.2416 C   0  0  0  0  0  0  0  0  0  0  0  0
    0.1284   -4.4068    1.6232 H   0  0  0  0  0  0  0  0  0  0  0  0
    1.0119   -2.9224    2.0444 H   0  0  0  0  0  0  0  0  0  0  0  0
    1.6919   -4.0449    0.8526 H   0  0  0  0  0  0  0  0  0  0  0  0
   -0.7656    0.1468    1.2418 H   0  0  0  0  0  0  0  0  0  0  0  0
    4.0912   -4.6302   -1.3032 C   0  0  0  0  0  0  0  0  0  0  0  0
    3.0462   -4.2078   -0.8298 O   0  0  0  0  0  0  0  0  0  0  0  0
    4.3753   -4.5324   -2.6251 N   0  0  0  0  0  0  0  0  0  0  0  0
    3.7526   -4.0053   -3.2107 H   0  0  0  0  0  0  0  0  0  0  0  0
    5.2747   -4.7795   -2.9951 H   0  0  0  0  0  0  0  0  0  0  0  0
    5.0405   -5.2280   -0.5438 N   0  0  0  0  0  0  0  0  0  0  0  0
    5.8473   -5.6669   -0.9479 H   0  0  0  0  0  0  0  0  0  0  0  0
    4.8364   -5.4125    0.4219 H   0  0  0  0  0  0  0  0  0  0  0  0
   -0.5960    6.6157    2.4908 C   0  0  0  0  0  0  0  0  0  0  0  0
   -0.6323    5.5466    1.8968 O   0  0  0  0  0  0  0  0  0  0  0  0
   -0.2529    7.7719    1.8736 N   0  0  0  0  0  0  0  0  0  0  0  0
    0.1011    7.7212    0.9348 H   0  0  0  0  0  0  0  0  0  0  0  0
   -0.1003    8.6206    2.3874 H   0  0  0  0  0  0  0  0  0  0  0  0
   -0.8973    6.7200    3.8082 N   0  0  0  0  0  0  0  0  0  0  0  0
   -0.9860    7.6116    4.2605 H   0  0  0  0  0  0  0  0  0  0  0  0
   -1.2808    5.9173    4.2749 H   0  0  0  0  0  0  0  0  0  0  0  0
   -2.0788   -0.5265   -2.9278 C   0  0  0  0  0  0  0  0  0  0  0  0
   -1.3819   -1.3786   -2.3893 O   0  0  0  0  0  0  0  0  0  0  0  0
   -2.7642   -0.7918   -4.0744 N   0  0  0  0  0  0  0  0  0  0  0  0
   -2.5616   -1.6524   -4.5516 H   0  0  0  0  0  0  0  0  0  0  0  0
   -3.1960   -0.0583   -4.6068 H   0  0  0  0  0  0  0  0  0  0  0  0
   -2.2197    0.7178   -2.4272 N   0  0  0  0  0  0  0  0  0  0  0  0
   -2.9258    1.3299   -2.7953 H   0  0  0  0  0  0  0  0  0  0  0  0
   -1.8554    0.9110   -1.4925 H   0  0  0  0  0  0  0  0  0  0  0  0
   -1.1331    2.4584    0.6250 C   0  0  0  0  0  0  0  0  0  0  0  0
   -1.2613    1.3172    0.1534 O   0  0  0  0  0  0  0  0  0  0  0  0
   -1.3577    3.5671   -0.1035 N   0  0  0  0  0  0  0  0  0  0  0  0
   -1.5372    3.4926   -1.0876 H   0  0  0  0  0  0  0  0  0  0  0  0
   -1.1730    4.4672    0.3137 H   0  0  0  0  0  0  0  0  0  0  0  0
   -0.7988    2.6719    1.9069 N   0  0  0  0  0  0  0  0  0  0  0  0
   -0.6476    3.6219    2.2164 H   0  0  0  0  0  0  0  0  0  0  0  0
   -0.5661    1.8923    2.4973 H   0  0  0  0  0  0  0  0  0  0  0  0
  1  2  1  0  0  0  0
  2  3  1  0  0  0  0
  2  4  1  0  0  0  0
  2  5  1  0  0  0  0
  5  6  1  0  0  0  0
  5  7  1  0  0  0  0
  5  8  1  0  0  0  0
  8  9  1  0  0  0  0
  9 10  1  0  0  0  0
  9 11  1  0  0  0  0
  9 12  1  0  0  0  0
  8 13  1  0  0  0  0
 13 14  1  0  0  0  0
 13 15  1  0  0  0  0
 13 16  1  0  0  0  0
  8 17  1  0  0  0  0
 17 18  1  0  0  0  0
 17 19  1  0  0  0  0
 17 20  1  0  0  0  0
  1 21  1  0  0  0  0
 22 23  2  0  0  0  0
 22 24  4  0  0  0  0
 24 25  1  0  0  0  0
 24 26  1  0  0  0  0
 22 27  4  0  0  0  0
 27 28  1  0  0  0  0
 27 29  1  0  0  0  0
 30 31  2  0  0  0  0
 30 32  4  0  0  0  0
 32 33  1  0  0  0  0
 32 34  1  0  0  0  0
 30 35  4  0  0  0  0
 35 36  1  0  0  0  0
 35 37  1  0  0  0  0
 38 39  2  0  0  0  0
 38 40  1  0  0  0  0
 40 41  1  0  0  0  0
 40 42  1  0  0  0  0
 38 43  4  0  0  0  0
 43 44  1  0  0  0  0
 43 45  1  0  0  0  0
 46 47  4  0  0  0  0
 46 48  4  0  0  0  0
 48 49  1  0  0  0  0
 48 50  1  0  0  0  0
 46 51  4  0  0  0  0
 51 52  1  0  0  0  0
 51 53  1  0  0  0  0
M  CHG  1   1   1
M  END
