 xtb: 6.6.1 (unknown-commit)
          01102415393D

 53 48  0     0  0            999 V2000
    1.6497   -2.5492   -1.2451 O   0  0  0  0  0  0  0  0  0  0  0  0
    0.2591   -2.6732   -1.1374 C   0  0  0  0  0  0  0  0  0  0  0  0
   -0.0205   -3.5761   -1.6842 H   0  0  0  0  0  0  0  0  0  0  0  0
   -0.0346   -2.8160   -0.0889 H   0  0  0  0  0  0  0  0  0  0  0  0
   -0.5035   -1.4393   -1.6328 C   0  0  0  0  0  0  0  0  0  0  0  0
   -0.0533   -0.5656   -1.1609 H   0  0  0  0  0  0  0  0  0  0  0  0
   -1.5515   -1.5014   -1.3258 H   0  0  0  0  0  0  0  0  0  0  0  0
   -0.5041   -1.2065   -3.1047 N   0  0  0  0  0  0  0  0  0  0  0  0
    0.8668   -1.0421   -3.6114 C   0  0  0  0  0  0  0  0  0  0  0  0
    1.3147   -0.1545   -3.1687 H   0  0  0  0  0  0  0  0  0  0  0  0
    0.8538   -0.9295   -4.6939 H   0  0  0  0  0  0  0  0  0  0  0  0
    1.4748   -1.9034   -3.3398 H   0  0  0  0  0  0  0  0  0  0  0  0
   -1.2766    0.0226   -3.3672 C   0  0  0  0  0  0  0  0  0  0  0  0
   -0.8934    0.8518   -2.7739 H   0  0  0  0  0  0  0  0  0  0  0  0
   -2.3113   -0.1489   -3.0711 H   0  0  0  0  0  0  0  0  0  0  0  0
   -1.2311    0.2750   -4.4239 H   0  0  0  0  0  0  0  0  0  0  0  0
   -1.1727   -2.3197   -3.7966 C   0  0  0  0  0  0  0  0  0  0  0  0
   -2.1541   -2.4739   -3.3500 H   0  0  0  0  0  0  0  0  0  0  0  0
   -0.5853   -3.2308   -3.7161 H   0  0  0  0  0  0  0  0  0  0  0  0
   -1.2953   -2.0780   -4.8508 H   0  0  0  0  0  0  0  0  0  0  0  0
    1.9324   -1.8221   -0.6375 H   0  0  0  0  0  0  0  0  0  0  0  0
    2.6984   -1.3173    1.6331 C   0  0  0  0  0  0  0  0  0  0  0  0
    2.2187   -0.7283    0.6557 O   0  0  0  0  0  0  0  0  0  0  0  0
    2.7769   -0.7448    2.8432 N   0  0  0  0  0  0  0  0  0  0  0  0
    2.2818    0.1264    3.0207 H   0  0  0  0  0  0  0  0  0  0  0  0
    3.0853   -1.2739    3.6388 H   0  0  0  0  0  0  0  0  0  0  0  0
    3.1757   -2.5772    1.5179 N   0  0  0  0  0  0  0  0  0  0  0  0
    3.6382   -3.0400    2.2785 H   0  0  0  0  0  0  0  0  0  0  0  0
    3.1942   -3.0114    0.6102 H   0  0  0  0  0  0  0  0  0  0  0  0
   -4.1734   -0.2668   -0.9572 C   0  0  0  0  0  0  0  0  0  0  0  0
   -3.5134   -1.0564   -1.6259 O   0  0  0  0  0  0  0  0  0  0  0  0
   -3.6279    0.8208   -0.3634 N   0  0  0  0  0  0  0  0  0  0  0  0
   -2.6898    1.1210   -0.6307 H   0  0  0  0  0  0  0  0  0  0  0  0
   -4.2336    1.5315    0.0085 H   0  0  0  0  0  0  0  0  0  0  0  0
   -5.5008   -0.4529   -0.7536 N   0  0  0  0  0  0  0  0  0  0  0  0
   -6.0328    0.1231   -0.1274 H   0  0  0  0  0  0  0  0  0  0  0  0
   -5.9155   -1.3072   -1.0807 H   0  0  0  0  0  0  0  0  0  0  0  0
   -0.1793    1.5451    0.1492 C   0  0  0  0  0  0  0  0  0  0  0  0
   -0.9430    1.7349   -0.7954 O   0  0  0  0  0  0  0  0  0  0  0  0
   -0.5689    1.0513    1.3336 N   0  0  0  0  0  0  0  0  0  0  0  0
   -1.5514    0.9219    1.5021 H   0  0  0  0  0  0  0  0  0  0  0  0
    0.0696    1.0853    2.1254 H   0  0  0  0  0  0  0  0  0  0  0  0
    1.1722    1.8225    0.0699 N   0  0  0  0  0  0  0  0  0  0  0  0
    1.7573    1.1080    0.5042 H   0  0  0  0  0  0  0  0  0  0  0  0
    1.4797    2.0779   -0.8585 H   0  0  0  0  0  0  0  0  0  0  0  0
    1.7071    2.7764    3.4383 C   0  0  0  0  0  0  0  0  0  0  0  0
    1.3290    1.6048    3.3716 O   0  0  0  0  0  0  0  0  0  0  0  0
    2.0909    3.3246    4.6128 N   0  0  0  0  0  0  0  0  0  0  0  0
    1.9689    2.7875    5.4529 H   0  0  0  0  0  0  0  0  0  0  0  0
    2.3131    4.2994    4.6998 H   0  0  0  0  0  0  0  0  0  0  0  0
    1.7699    3.5630    2.3487 N   0  0  0  0  0  0  0  0  0  0  0  0
    2.1148    4.5040    2.3935 H   0  0  0  0  0  0  0  0  0  0  0  0
    1.5607    3.1473    1.4451 H   0  0  0  0  0  0  0  0  0  0  0  0
  1  2  1  0  0  0  0
  2  3  1  0  0  0  0
  2  4  1  0  0  0  0
  2  5  1  0  0  0  0
  5  6  1  0  0  0  0
  5  7  1  0  0  0  0
  5  8  1  0  0  0  0
  8  9  1  0  0  0  0
  9 10  1  0  0  0  0
  9 11  1  0  0  0  0
  9 12  1  0  0  0  0
  8 13  1  0  0  0  0
 13 14  1  0  0  0  0
 13 15  1  0  0  0  0
 13 16  1  0  0  0  0
  8 17  1  0  0  0  0
 17 18  1  0  0  0  0
 17 19  1  0  0  0  0
 17 20  1  0  0  0  0
  1 21  1  0  0  0  0
 22 23  4  0  0  0  0
 22 24  4  0  0  0  0
 24 25  1  0  0  0  0
 24 26  1  0  0  0  0
 22 27  4  0  0  0  0
 27 28  1  0  0  0  0
 27 29  1  0  0  0  0
 30 31  2  0  0  0  0
 30 32  4  0  0  0  0
 32 33  1  0  0  0  0
 32 34  1  0  0  0  0
 30 35  4  0  0  0  0
 35 36  1  0  0  0  0
 35 37  1  0  0  0  0
 38 39  2  0  0  0  0
 38 40  4  0  0  0  0
 40 41  1  0  0  0  0
 40 42  1  0  0  0  0
 38 43  1  0  0  0  0
 43 44  1  0  0  0  0
 43 45  1  0  0  0  0
 46 47  4  0  0  0  0
 46 48  4  0  0  0  0
 48 49  1  0  0  0  0
 48 50  1  0  0  0  0
 46 51  4  0  0  0  0
 51 52  1  0  0  0  0
 51 53  1  0  0  0  0
M  CHG  1   1   1
M  END
