 xtb: 6.6.1 (unknown-commit)
          01102418253D

 53 48  0     0  0            999 V2000
    3.0954   -3.8305   -1.9362 O   0  0  0  0  0  0  0  0  0  0  0  0
    2.1147   -2.8837   -2.3086 C   0  0  0  0  0  0  0  0  0  0  0  0
    2.5459   -2.1194   -2.9669 H   0  0  0  0  0  0  0  0  0  0  0  0
    1.3000   -3.3748   -2.8566 H   0  0  0  0  0  0  0  0  0  0  0  0
    1.5687   -2.1392   -1.0892 C   0  0  0  0  0  0  0  0  0  0  0  0
    0.7443   -1.5134   -1.4401 H   0  0  0  0  0  0  0  0  0  0  0  0
    2.3498   -1.5150   -0.6548 H   0  0  0  0  0  0  0  0  0  0  0  0
    1.0369   -2.9871    0.0124 N   0  0  0  0  0  0  0  0  0  0  0  0
    0.2230   -2.1222    0.8844 C   0  0  0  0  0  0  0  0  0  0  0  0
   -0.1450   -2.6912    1.7351 H   0  0  0  0  0  0  0  0  0  0  0  0
   -0.6148   -1.7377    0.3025 H   0  0  0  0  0  0  0  0  0  0  0  0
    0.8325   -1.2924    1.2358 H   0  0  0  0  0  0  0  0  0  0  0  0
    2.1465   -3.5458    0.8015 C   0  0  0  0  0  0  0  0  0  0  0  0
    2.8056   -4.1204    0.1558 H   0  0  0  0  0  0  0  0  0  0  0  0
    1.7570   -4.1846    1.5915 H   0  0  0  0  0  0  0  0  0  0  0  0
    2.7080   -2.7244    1.2445 H   0  0  0  0  0  0  0  0  0  0  0  0
    0.1798   -4.0571   -0.5171 C   0  0  0  0  0  0  0  0  0  0  0  0
    0.7740   -4.7673   -1.0865 H   0  0  0  0  0  0  0  0  0  0  0  0
   -0.5862   -3.6098   -1.1497 H   0  0  0  0  0  0  0  0  0  0  0  0
   -0.3005   -4.5846    0.3048 H   0  0  0  0  0  0  0  0  0  0  0  0
    3.5780   -4.1209   -2.7161 H   0  0  0  0  0  0  0  0  0  0  0  0
    2.7168    0.3571    2.4167 C   0  0  0  0  0  0  0  0  0  0  0  0
    2.7163   -0.2703    1.3524 O   0  0  0  0  0  0  0  0  0  0  0  0
    3.7394    0.2361    3.2970 N   0  0  0  0  0  0  0  0  0  0  0  0
    4.5583   -0.2705    3.0108 H   0  0  0  0  0  0  0  0  0  0  0  0
    3.8052    0.8145    4.1146 H   0  0  0  0  0  0  0  0  0  0  0  0
    1.6869    1.1364    2.7799 N   0  0  0  0  0  0  0  0  0  0  0  0
    1.7126    1.6717    3.6280 H   0  0  0  0  0  0  0  0  0  0  0  0
    0.9083    1.2818    2.1300 H   0  0  0  0  0  0  0  0  0  0  0  0
    0.1426    1.7287   -0.2926 C   0  0  0  0  0  0  0  0  0  0  0  0
   -0.2986    1.5853    0.8582 O   0  0  0  0  0  0  0  0  0  0  0  0
   -0.5058    2.4610   -1.2144 N   0  0  0  0  0  0  0  0  0  0  0  0
   -1.4746    2.7319   -1.0406 H   0  0  0  0  0  0  0  0  0  0  0  0
   -0.1962    2.4586   -2.1696 H   0  0  0  0  0  0  0  0  0  0  0  0
    1.3050    1.1555   -0.6651 N   0  0  0  0  0  0  0  0  0  0  0  0
    1.7278    1.3851   -1.5456 H   0  0  0  0  0  0  0  0  0  0  0  0
    1.8715    0.6850    0.0386 H   0  0  0  0  0  0  0  0  0  0  0  0
   -2.0914   -0.3213   -1.6042 C   0  0  0  0  0  0  0  0  0  0  0  0
   -1.3543   -1.3047   -1.5710 O   0  0  0  0  0  0  0  0  0  0  0  0
   -2.3524    0.3410   -2.7627 N   0  0  0  0  0  0  0  0  0  0  0  0
   -2.1561   -0.1301   -3.6288 H   0  0  0  0  0  0  0  0  0  0  0  0
   -3.0649    1.0508   -2.7691 H   0  0  0  0  0  0  0  0  0  0  0  0
   -2.6926    0.1894   -0.5081 N   0  0  0  0  0  0  0  0  0  0  0  0
   -3.0695    1.1316   -0.5594 H   0  0  0  0  0  0  0  0  0  0  0  0
   -2.3489   -0.0955    0.3937 H   0  0  0  0  0  0  0  0  0  0  0  0
   -3.3496    3.4956    0.4922 C   0  0  0  0  0  0  0  0  0  0  0  0
   -3.2176    2.9739   -0.6201 O   0  0  0  0  0  0  0  0  0  0  0  0
   -4.3322    4.3920    0.7281 N   0  0  0  0  0  0  0  0  0  0  0  0
   -4.9762    4.6029   -0.0129 H   0  0  0  0  0  0  0  0  0  0  0  0
   -4.4869    4.7987    1.6320 H   0  0  0  0  0  0  0  0  0  0  0  0
   -2.5392    3.1848    1.5184 N   0  0  0  0  0  0  0  0  0  0  0  0
   -2.6028    3.6679    2.3954 H   0  0  0  0  0  0  0  0  0  0  0  0
   -1.7291    2.5858    1.3448 H   0  0  0  0  0  0  0  0  0  0  0  0
  1  2  1  0  0  0  0
  2  3  1  0  0  0  0
  2  4  1  0  0  0  0
  2  5  1  0  0  0  0
  5  6  1  0  0  0  0
  5  7  1  0  0  0  0
  5  8  1  0  0  0  0
  8  9  1  0  0  0  0
  9 10  1  0  0  0  0
  9 11  1  0  0  0  0
  9 12  1  0  0  0  0
  8 13  1  0  0  0  0
 13 14  1  0  0  0  0
 13 15  1  0  0  0  0
 13 16  1  0  0  0  0
  8 17  1  0  0  0  0
 17 18  1  0  0  0  0
 17 19  1  0  0  0  0
 17 20  1  0  0  0  0
  1 21  1  0  0  0  0
 22 23  4  0  0  0  0
 22 24  4  0  0  0  0
 24 25  1  0  0  0  0
 24 26  1  0  0  0  0
 22 27  4  0  0  0  0
 27 28  1  0  0  0  0
 27 29  1  0  0  0  0
 30 31  4  0  0  0  0
 30 32  4  0  0  0  0
 32 33  1  0  0  0  0
 32 34  1  0  0  0  0
 30 35  4  0  0  0  0
 35 36  1  0  0  0  0
 35 37  1  0  0  0  0
 38 39  2  0  0  0  0
 38 40  1  0  0  0  0
 40 41  1  0  0  0  0
 40 42  1  0  0  0  0
 38 43  4  0  0  0  0
 43 44  1  0  0  0  0
 43 45  1  0  0  0  0
 46 47  4  0  0  0  0
 46 48  4  0  0  0  0
 48 49  1  0  0  0  0
 48 50  1  0  0  0  0
 46 51  4  0  0  0  0
 51 52  1  0  0  0  0
 51 53  1  0  0  0  0
M  CHG  1   1   1
M  END
