  53

 O          0.7443990094       -0.8547671372        2.9138750494
 C         -0.5188391133       -0.6363785473        2.3431073183
 H         -1.0821577310       -1.5589121732        2.4988659701
 H         -1.0454821325        0.1690005289        2.8717689871
 C         -0.4709372269       -0.2320044348        0.8667649533
 H          0.2887246015        0.5437289025        0.7482168567
 H         -1.4386755584        0.1828577354        0.5808467436
 N         -0.1400934450       -1.2997377917       -0.1103418077
 C          1.1695746465       -1.9024053211        0.1802154073
 H          1.9300203381       -1.1247939240        0.1365891451
 H          1.3764546645       -2.6632255463       -0.5700936465
 H          1.1711546458       -2.3431286447        1.1739811804
 C         -0.0733442511       -0.6748952189       -1.4427539132
 H          0.7030810619        0.0875734802       -1.4412316491
 H         -1.0303469245       -0.2152799387       -1.6805534928
 H          0.1643308035       -1.4453681919       -2.1746423498
 C         -1.1710409477       -2.3463543651       -0.1391698120
 H         -2.1436762671       -1.8970295129       -0.3293843964
 H         -1.1986839322       -2.8813274666        0.8064790690
 H         -0.9280795901       -3.0485082308       -0.9360927448
 H          1.2377160831       -0.0199149515        2.8986619327
 C          0.0296733065        3.2594631782        0.0579866632
 O         -0.2299404232        2.9634247182        1.2306887715
 N          1.0237704403        4.1281058741       -0.2415049846
 H          1.6248390829        4.4439277576        0.4985533742
 H          1.3432635657        4.2500963475       -1.1850727652
 N         -0.6582180996        2.7466009953       -0.9732408500
 H         -0.5080286623        3.0811270485       -1.9073779477
 H         -1.4913242475        2.1851418073       -0.7854567880
 C          2.8132419273        1.4410846589        1.3670817044
 O          2.3145427926        1.1279862606        0.2959676864
 N          4.1455167255        1.3550224751        1.5957746870
 H          4.7248241953        0.9401458495        0.8873211182
 H          4.5429876346        1.4982548394        2.5064316879
 N          2.0477052154        1.8445567145        2.4281457294
 H          2.5102889101        2.2779837568        3.2110104300
 H          1.1447703723        2.2573554691        2.1774701319
 C          0.7937785621       -4.5129367817       -3.2341651588
 O          0.5246433566       -3.6310311620       -2.4305072211
 N          1.0002717899       -5.7969391476       -2.8547421777
 H          1.0193626937       -6.0127508719       -1.8743291142
 H          1.3121746935       -6.4997013260       -3.4993606531
 N          0.9064929357       -4.2705472627       -4.5621744143
 H          1.0286308501       -5.0094344665       -5.2299153687
 H          0.6698670668       -3.3572317364       -4.9056763230
 C         -3.5805111967        1.7812924756        0.6069107582
 O         -2.9403035310        1.2474548822       -0.3035475124
 N         -2.9724089653        2.4159029720        1.6258055646
 H         -1.9683549166        2.5971102135        1.5668486178
 H         -3.5047646754        2.9316250778        2.3028137482
 N         -4.9296074964        1.7021746954        0.6511830837
 H         -5.4724744169        2.1500503079        1.3659917988
 H         -5.4091669676        1.2380599724       -0.0989296381
