 xtb: 6.6.1 (unknown-commit)
          01102418263D

 53 48  0     0  0            999 V2000
    0.7444   -0.8548    2.9139 O   0  0  0  0  0  0  0  0  0  0  0  0
   -0.5188   -0.6364    2.3431 C   0  0  0  0  0  0  0  0  0  0  0  0
   -1.0822   -1.5589    2.4989 H   0  0  0  0  0  0  0  0  0  0  0  0
   -1.0455    0.1690    2.8718 H   0  0  0  0  0  0  0  0  0  0  0  0
   -0.4709   -0.2320    0.8668 C   0  0  0  0  0  0  0  0  0  0  0  0
    0.2887    0.5437    0.7482 H   0  0  0  0  0  0  0  0  0  0  0  0
   -1.4387    0.1829    0.5809 H   0  0  0  0  0  0  0  0  0  0  0  0
   -0.1401   -1.2997   -0.1103 N   0  0  0  0  0  0  0  0  0  0  0  0
    1.1696   -1.9024    0.1802 C   0  0  0  0  0  0  0  0  0  0  0  0
    1.9300   -1.1248    0.1366 H   0  0  0  0  0  0  0  0  0  0  0  0
    1.3764   -2.6632   -0.5701 H   0  0  0  0  0  0  0  0  0  0  0  0
    1.1711   -2.3431    1.1740 H   0  0  0  0  0  0  0  0  0  0  0  0
   -0.0734   -0.6749   -1.4428 C   0  0  0  0  0  0  0  0  0  0  0  0
    0.7031    0.0876   -1.4412 H   0  0  0  0  0  0  0  0  0  0  0  0
   -1.0304   -0.2153   -1.6805 H   0  0  0  0  0  0  0  0  0  0  0  0
    0.1643   -1.4454   -2.1746 H   0  0  0  0  0  0  0  0  0  0  0  0
   -1.1711   -2.3463   -0.1392 C   0  0  0  0  0  0  0  0  0  0  0  0
   -2.1437   -1.8970   -0.3294 H   0  0  0  0  0  0  0  0  0  0  0  0
   -1.1987   -2.8813    0.8065 H   0  0  0  0  0  0  0  0  0  0  0  0
   -0.9281   -3.0485   -0.9361 H   0  0  0  0  0  0  0  0  0  0  0  0
    1.2377   -0.0199    2.8987 H   0  0  0  0  0  0  0  0  0  0  0  0
    0.0297    3.2595    0.0580 C   0  0  0  0  0  0  0  0  0  0  0  0
   -0.2299    2.9634    1.2307 O   0  0  0  0  0  0  0  0  0  0  0  0
    1.0238    4.1281   -0.2415 N   0  0  0  0  0  0  0  0  0  0  0  0
    1.6249    4.4439    0.4985 H   0  0  0  0  0  0  0  0  0  0  0  0
    1.3433    4.2501   -1.1851 H   0  0  0  0  0  0  0  0  0  0  0  0
   -0.6582    2.7466   -0.9732 N   0  0  0  0  0  0  0  0  0  0  0  0
   -0.5080    3.0811   -1.9074 H   0  0  0  0  0  0  0  0  0  0  0  0
   -1.4913    2.1851   -0.7855 H   0  0  0  0  0  0  0  0  0  0  0  0
    2.8133    1.4411    1.3671 C   0  0  0  0  0  0  0  0  0  0  0  0
    2.3145    1.1280    0.2960 O   0  0  0  0  0  0  0  0  0  0  0  0
    4.1455    1.3550    1.5958 N   0  0  0  0  0  0  0  0  0  0  0  0
    4.7248    0.9401    0.8873 H   0  0  0  0  0  0  0  0  0  0  0  0
    4.5430    1.4982    2.5064 H   0  0  0  0  0  0  0  0  0  0  0  0
    2.0477    1.8446    2.4281 N   0  0  0  0  0  0  0  0  0  0  0  0
    2.5103    2.2780    3.2110 H   0  0  0  0  0  0  0  0  0  0  0  0
    1.1448    2.2574    2.1775 H   0  0  0  0  0  0  0  0  0  0  0  0
    0.7937   -4.5129   -3.2342 C   0  0  0  0  0  0  0  0  0  0  0  0
    0.5246   -3.6310   -2.4305 O   0  0  0  0  0  0  0  0  0  0  0  0
    1.0002   -5.7969   -2.8547 N   0  0  0  0  0  0  0  0  0  0  0  0
    1.0193   -6.0128   -1.8743 H   0  0  0  0  0  0  0  0  0  0  0  0
    1.3121   -6.4997   -3.4994 H   0  0  0  0  0  0  0  0  0  0  0  0
    0.9065   -4.2706   -4.5622 N   0  0  0  0  0  0  0  0  0  0  0  0
    1.0286   -5.0094   -5.2299 H   0  0  0  0  0  0  0  0  0  0  0  0
    0.6698   -3.3572   -4.9057 H   0  0  0  0  0  0  0  0  0  0  0  0
   -3.5805    1.7813    0.6069 C   0  0  0  0  0  0  0  0  0  0  0  0
   -2.9403    1.2475   -0.3035 O   0  0  0  0  0  0  0  0  0  0  0  0
   -2.9724    2.4159    1.6258 N   0  0  0  0  0  0  0  0  0  0  0  0
   -1.9683    2.5971    1.5669 H   0  0  0  0  0  0  0  0  0  0  0  0
   -3.5047    2.9316    2.3028 H   0  0  0  0  0  0  0  0  0  0  0  0
   -4.9296    1.7022    0.6512 N   0  0  0  0  0  0  0  0  0  0  0  0
   -5.4725    2.1501    1.3660 H   0  0  0  0  0  0  0  0  0  0  0  0
   -5.4092    1.2381   -0.0989 H   0  0  0  0  0  0  0  0  0  0  0  0
  1  2  1  0  0  0  0
  2  3  1  0  0  0  0
  2  4  1  0  0  0  0
  2  5  1  0  0  0  0
  5  6  1  0  0  0  0
  5  7  1  0  0  0  0
  5  8  1  0  0  0  0
  8  9  1  0  0  0  0
  9 10  1  0  0  0  0
  9 11  1  0  0  0  0
  9 12  1  0  0  0  0
  8 13  1  0  0  0  0
 13 14  1  0  0  0  0
 13 15  1  0  0  0  0
 13 16  1  0  0  0  0
  8 17  1  0  0  0  0
 17 18  1  0  0  0  0
 17 19  1  0  0  0  0
 17 20  1  0  0  0  0
  1 21  1  0  0  0  0
 22 23  4  0  0  0  0
 22 24  4  0  0  0  0
 24 25  1  0  0  0  0
 24 26  1  0  0  0  0
 22 27  4  0  0  0  0
 27 28  1  0  0  0  0
 27 29  1  0  0  0  0
 30 31  2  0  0  0  0
 30 32  4  0  0  0  0
 32 33  1  0  0  0  0
 32 34  1  0  0  0  0
 30 35  1  0  0  0  0
 35 36  1  0  0  0  0
 35 37  1  0  0  0  0
 38 39  2  0  0  0  0
 38 40  4  0  0  0  0
 40 41  1  0  0  0  0
 40 42  1  0  0  0  0
 38 43  4  0  0  0  0
 43 44  1  0  0  0  0
 43 45  1  0  0  0  0
 46 47  4  0  0  0  0
 46 48  4  0  0  0  0
 48 49  1  0  0  0  0
 48 50  1  0  0  0  0
 46 51  4  0  0  0  0
 51 52  1  0  0  0  0
 51 53  1  0  0  0  0
M  CHG  1   1   1
M  END
