  53

 O         -0.9649923799       -0.9769995006       -3.1479262482
 C         -0.0824098457       -0.2054689658       -2.3554183128
 H          0.8822712749       -0.0919997026       -2.8678143347
 H         -0.4939448931        0.7944463422       -2.1793038742
 C          0.1122903589       -0.8154279240       -0.9685043569
 H         -0.8176506398       -0.7377105243       -0.4030212010
 H          0.8946893311       -0.2311537300       -0.4795699578
 N          0.5316921156       -2.2417727219       -0.9175188005
 C          0.9705613267       -2.5144644514        0.4619887633
 H          1.8207451863       -1.8758268230        0.6972454487
 H          1.2614722204       -3.5584865544        0.5574422805
 H          0.1459839777       -2.3075414751        1.1406187802
 C          1.6495579801       -2.4947475495       -1.8367334464
 H          1.3210299581       -2.3721470299       -2.8653364654
 H          2.0123289622       -3.5120479716       -1.7036580089
 H          2.4508265403       -1.7925388340       -1.6044067316
 C         -0.6036205925       -3.1237133722       -1.2322705610
 H         -1.0001979982       -2.8771415374       -2.2133313063
 H         -1.3804495643       -2.9737991719       -0.4843723650
 H         -0.2817387246       -4.1629296348       -1.2152760977
 H         -1.2939481425       -0.4404646638       -3.8746855996
 C          4.0115283681        0.4648679143        0.0041578456
 O          3.1364756047       -0.3706816101       -0.2046653434
 N          3.8043609698        1.5578029759        0.7626895891
 H          2.8454909717        1.7890862981        1.0277333812
 H          4.4879225935        2.2928587890        0.7931242839
 N          5.2596704552        0.3286053964       -0.5226715043
 H          6.0150371155        0.9220184683       -0.2304524208
 H          5.5004869312       -0.5462762618       -0.9537171685
 C         -1.6706524496        2.9910774592       -0.5996358456
 O         -2.0017041091        1.8305817445       -0.3360530935
 N         -2.4546490536        3.7754054484       -1.3838068081
 H         -3.3706360876        3.4416092044       -1.6257882151
 H         -2.2679754822        4.7548898426       -1.4996190878
 N         -0.5114872821        3.5165330918       -0.1843983167
 H         -0.2748986629        4.4720794417       -0.3789693530
 H          0.1128260321        2.9738453450        0.4212192220
 C         -3.2919837627       -1.4581038727        1.0989497619
 O         -2.0901048107       -1.6953253483        1.2192132387
 N         -4.2264679442       -2.3342286696        1.5438888810
 H         -3.9224310042       -3.1397059946        2.0606233313
 H         -5.2073135188       -2.1238063837        1.5290845274
 N         -3.7567094167       -0.3544871131        0.4861848322
 H         -4.7413464376       -0.1684182148        0.4349338619
 H         -3.1215041256        0.3593511951        0.1525843906
 C          0.6013770430        1.0046880741        2.0299300597
 O          1.1298460479        1.9730940228        1.4712121233
 N         -0.7031844295        0.7281168047        1.8959299516
 H         -1.2043129043        1.2086236251        1.1473103681
 H         -1.0661847840       -0.1819552120        2.1380143856
 N          1.3298559170        0.1596242425        2.8059599092
 H          0.8637024411       -0.4957757270        3.4075893053
 H          2.2609998536        0.4411441551        3.0603391977
