  53

 O         -1.3441979514       -3.6271658980       -0.1491206630
 C         -2.4659395949       -3.2147855842       -0.8676925689
 H         -2.9315909678       -4.1178948181       -1.2724348170
 H         -3.2005035048       -2.7348973078       -0.2062968085
 C         -2.1674435387       -2.1960053008       -1.9806577140
 H         -1.7173004584       -1.2955798923       -1.5494872590
 H         -3.1163895211       -1.9286506783       -2.4486612658
 N         -1.2352210740       -2.6500584241       -3.0528347773
 C          0.1345417404       -2.7423051338       -2.5147317777
 H          0.4360827939       -1.7548073858       -2.1670918162
 H          0.8176050984       -3.0786220896       -3.2914340029
 H          0.1529670666       -3.4398488489       -1.6796830520
 C         -1.2474298958       -1.6298390725       -4.1171436893
 H         -0.9845280688       -0.6662082824       -3.6780350734
 H         -2.2339706145       -1.5663044352       -4.5714227687
 H         -0.5198337875       -1.8845463713       -4.8848983073
 C         -1.6363203079       -3.9509812194       -3.6087709572
 H         -2.6802372628       -3.9238804457       -3.9170031512
 H         -1.5000676500       -4.7337144014       -2.8658779059
 H         -1.0205404583       -4.1859362107       -4.4753001133
 H         -1.0182045754       -2.8519723851        0.3792822614
 C          2.7278553353        3.9349783975        1.2656861763
 O          1.9198701990        3.9051369541        0.3350295845
 N          3.8487474505        4.6902808551        1.1965085584
 H          3.9692552169        5.2920323948        0.4016014353
 H          4.4758089980        4.7908321343        1.9731177089
 N          2.5596004012        3.1888809954        2.3710695829
 H          3.1727046964        3.2709233692        3.1607010610
 H          1.7043934189        2.6379061279        2.4599474361
 C          0.4814241114        0.9149096214       -1.3082598600
 O         -0.3720522415        0.2910528535       -1.9461607155
 N          0.9011176897        2.1396364366       -1.6753726176
 H          0.4630506868        2.5716797704       -2.4695924807
 H          1.4343725138        2.7332962673       -1.0510670645
 N          1.1132814568        0.3552376991       -0.2458766448
 H          1.6700161610        0.9495411151        0.3455160443
 H          0.6420817718       -0.4121871435        0.2188927064
 C         -0.6951445889        1.9563746723        1.4839860729
 O          0.2227325173        1.6355217525        2.2515752464
 N         -0.7370879009        3.1737598786        0.9135620090
 H          0.1394773257        3.6893882181        0.8498381451
 H         -1.4393573901        3.3831410491        0.2262349578
 N         -1.7261810438        1.1146454519        1.2393828235
 H         -2.3808495829        1.3337416843        0.5091810416
 H         -1.5688712272        0.1328400689        1.4327645768
 C         -0.1371941003       -1.8552560472        2.4582395038
 O         -0.5573471835       -1.5586412704        1.3241550854
 N         -0.1284630823       -3.1393566611        2.8726341345
 H         -0.4745176596       -3.8566185934        2.2584841561
 H          0.1941571474       -3.4010682548        3.7858605829
 N          0.3190934478       -0.9187282490        3.2901936176
 H          0.6400204762       -1.1444673802        4.2135060149
 H          0.3040337919        0.0632784275        2.9850787142
