 xtb: 6.6.1 (unknown-commit)
          01102415333D

 53 48  0     0  0            999 V2000
   -1.3442   -3.6272   -0.1491 O   0  0  0  0  0  0  0  0  0  0  0  0
   -2.4660   -3.2148   -0.8677 C   0  0  0  0  0  0  0  0  0  0  0  0
   -2.9316   -4.1179   -1.2724 H   0  0  0  0  0  0  0  0  0  0  0  0
   -3.2005   -2.7349   -0.2063 H   0  0  0  0  0  0  0  0  0  0  0  0
   -2.1675   -2.1960   -1.9806 C   0  0  0  0  0  0  0  0  0  0  0  0
   -1.7173   -1.2956   -1.5495 H   0  0  0  0  0  0  0  0  0  0  0  0
   -3.1164   -1.9286   -2.4486 H   0  0  0  0  0  0  0  0  0  0  0  0
   -1.2352   -2.6501   -3.0528 N   0  0  0  0  0  0  0  0  0  0  0  0
    0.1345   -2.7423   -2.5147 C   0  0  0  0  0  0  0  0  0  0  0  0
    0.4361   -1.7548   -2.1671 H   0  0  0  0  0  0  0  0  0  0  0  0
    0.8176   -3.0786   -3.2914 H   0  0  0  0  0  0  0  0  0  0  0  0
    0.1529   -3.4399   -1.6797 H   0  0  0  0  0  0  0  0  0  0  0  0
   -1.2475   -1.6298   -4.1171 C   0  0  0  0  0  0  0  0  0  0  0  0
   -0.9845   -0.6662   -3.6780 H   0  0  0  0  0  0  0  0  0  0  0  0
   -2.2340   -1.5663   -4.5714 H   0  0  0  0  0  0  0  0  0  0  0  0
   -0.5199   -1.8846   -4.8849 H   0  0  0  0  0  0  0  0  0  0  0  0
   -1.6364   -3.9510   -3.6088 C   0  0  0  0  0  0  0  0  0  0  0  0
   -2.6803   -3.9239   -3.9170 H   0  0  0  0  0  0  0  0  0  0  0  0
   -1.5001   -4.7337   -2.8659 H   0  0  0  0  0  0  0  0  0  0  0  0
   -1.0206   -4.1859   -4.4753 H   0  0  0  0  0  0  0  0  0  0  0  0
   -1.0182   -2.8520    0.3793 H   0  0  0  0  0  0  0  0  0  0  0  0
    2.7279    3.9350    1.2657 C   0  0  0  0  0  0  0  0  0  0  0  0
    1.9199    3.9051    0.3350 O   0  0  0  0  0  0  0  0  0  0  0  0
    3.8488    4.6903    1.1965 N   0  0  0  0  0  0  0  0  0  0  0  0
    3.9693    5.2920    0.4016 H   0  0  0  0  0  0  0  0  0  0  0  0
    4.4758    4.7908    1.9731 H   0  0  0  0  0  0  0  0  0  0  0  0
    2.5596    3.1889    2.3711 N   0  0  0  0  0  0  0  0  0  0  0  0
    3.1727    3.2709    3.1607 H   0  0  0  0  0  0  0  0  0  0  0  0
    1.7044    2.6379    2.4599 H   0  0  0  0  0  0  0  0  0  0  0  0
    0.4814    0.9149   -1.3083 C   0  0  0  0  0  0  0  0  0  0  0  0
   -0.3721    0.2911   -1.9462 O   0  0  0  0  0  0  0  0  0  0  0  0
    0.9011    2.1396   -1.6754 N   0  0  0  0  0  0  0  0  0  0  0  0
    0.4631    2.5717   -2.4696 H   0  0  0  0  0  0  0  0  0  0  0  0
    1.4344    2.7333   -1.0511 H   0  0  0  0  0  0  0  0  0  0  0  0
    1.1133    0.3552   -0.2459 N   0  0  0  0  0  0  0  0  0  0  0  0
    1.6700    0.9495    0.3455 H   0  0  0  0  0  0  0  0  0  0  0  0
    0.6421   -0.4122    0.2189 H   0  0  0  0  0  0  0  0  0  0  0  0
   -0.6951    1.9564    1.4840 C   0  0  0  0  0  0  0  0  0  0  0  0
    0.2227    1.6355    2.2516 O   0  0  0  0  0  0  0  0  0  0  0  0
   -0.7371    3.1738    0.9136 N   0  0  0  0  0  0  0  0  0  0  0  0
    0.1395    3.6894    0.8498 H   0  0  0  0  0  0  0  0  0  0  0  0
   -1.4393    3.3831    0.2262 H   0  0  0  0  0  0  0  0  0  0  0  0
   -1.7262    1.1147    1.2394 N   0  0  0  0  0  0  0  0  0  0  0  0
   -2.3808    1.3338    0.5092 H   0  0  0  0  0  0  0  0  0  0  0  0
   -1.5689    0.1329    1.4328 H   0  0  0  0  0  0  0  0  0  0  0  0
   -0.1372   -1.8553    2.4582 C   0  0  0  0  0  0  0  0  0  0  0  0
   -0.5574   -1.5586    1.3242 O   0  0  0  0  0  0  0  0  0  0  0  0
   -0.1285   -3.1394    2.8726 N   0  0  0  0  0  0  0  0  0  0  0  0
   -0.4745   -3.8566    2.2585 H   0  0  0  0  0  0  0  0  0  0  0  0
    0.1942   -3.4011    3.7859 H   0  0  0  0  0  0  0  0  0  0  0  0
    0.3191   -0.9187    3.2902 N   0  0  0  0  0  0  0  0  0  0  0  0
    0.6400   -1.1445    4.2135 H   0  0  0  0  0  0  0  0  0  0  0  0
    0.3040    0.0633    2.9851 H   0  0  0  0  0  0  0  0  0  0  0  0
  1  2  1  0  0  0  0
  2  3  1  0  0  0  0
  2  4  1  0  0  0  0
  2  5  1  0  0  0  0
  5  6  1  0  0  0  0
  5  7  1  0  0  0  0
  5  8  1  0  0  0  0
  8  9  1  0  0  0  0
  9 10  1  0  0  0  0
  9 11  1  0  0  0  0
  9 12  1  0  0  0  0
  8 13  1  0  0  0  0
 13 14  1  0  0  0  0
 13 15  1  0  0  0  0
 13 16  1  0  0  0  0
  8 17  1  0  0  0  0
 17 18  1  0  0  0  0
 17 19  1  0  0  0  0
 17 20  1  0  0  0  0
  1 21  1  0  0  0  0
 22 23  4  0  0  0  0
 22 24  4  0  0  0  0
 24 25  1  0  0  0  0
 24 26  1  0  0  0  0
 22 27  4  0  0  0  0
 27 28  1  0  0  0  0
 27 29  1  0  0  0  0
 30 31  4  0  0  0  0
 30 32  4  0  0  0  0
 32 33  1  0  0  0  0
 32 34  1  0  0  0  0
 30 35  4  0  0  0  0
 35 36  1  0  0  0  0
 35 37  1  0  0  0  0
 38 39  4  0  0  0  0
 38 40  4  0  0  0  0
 40 41  1  0  0  0  0
 40 42  1  0  0  0  0
 38 43  4  0  0  0  0
 43 44  1  0  0  0  0
 43 45  1  0  0  0  0
 46 47  4  0  0  0  0
 46 48  4  0  0  0  0
 48 49  1  0  0  0  0
 48 50  1  0  0  0  0
 46 51  4  0  0  0  0
 51 52  1  0  0  0  0
 51 53  1  0  0  0  0
M  CHG  1   1   1
M  END
