  53

 O          0.6519477423       -1.2768628682       -0.7564129507
 C         -0.2946722402       -1.9622841386        0.0079571243
 H         -0.3772558914       -2.9643803207       -0.4215690236
 H          0.0508450524       -2.0766166984        1.0454073957
 C         -1.6718051562       -1.2880559134        0.0924496697
 H         -1.5846584682       -0.3277026185        0.6065185839
 H         -2.3260216456       -1.9540122781        0.6576244772
 N         -2.3483224905       -1.0087638316       -1.2050095516
 C         -3.7295579043       -0.5996564370       -0.8966985906
 H         -3.6997188126        0.2696035126       -0.2417256843
 H         -4.2421285853       -1.4250001773       -0.4061629508
 H         -4.2533304265       -0.3417046810       -1.8146733836
 C         -2.3833595915       -2.2098126469       -2.0504414500
 H         -2.9799240994       -2.0150542696       -2.9397019728
 H         -2.8375112996       -3.0212365834       -1.4823230340
 H         -1.3765166658       -2.4817872442       -2.3569680123
 C         -1.6734000657        0.0945042892       -1.9076596930
 H         -0.6431652278       -0.1811952530       -2.1208305010
 H         -1.6881296100        0.9750933732       -1.2655773126
 H         -2.1940377827        0.3135215626       -2.8376479699
 H          0.8190630303       -0.3968290436       -0.3283748477
 C          6.7823107165        2.3957148653       -0.8953734895
 O          5.5876788708        2.2126853170       -0.7049466950
 N          7.2887368776        3.6213455968       -1.1737124726
 H          6.6444900749        4.3712864011       -1.3520018700
 H          8.2438900316        3.7470788183       -1.4554161991
 N          7.6849744623        1.3861182898       -0.8405592157
 H          8.6731269871        1.5587902803       -0.8742794642
 H          7.3767064924        0.4883893931       -0.5116127523
 C          2.4026699058        1.3964049695        0.0714324898
 O          1.2188841692        1.1055517669        0.3063764622
 N          2.9190157317        2.6036099898        0.3641847201
 H          2.3233866289        3.3362715551        0.7027755635
 H          3.8716037523        2.8021647859        0.0966943081
 N          3.2647648238        0.5176579651       -0.4626462164
 H          4.2008297918        0.8275533775       -0.6820399703
 H          2.9389120988       -0.3891231315       -0.7487189715
 C         -4.5639457615       -4.3462016641        0.9884857622
 O         -3.9493251732       -3.5014790304        0.3531175881
 N         -4.7249268866       -5.6143927423        0.5400261525
 H         -4.2470444168       -5.8927152908       -0.2979782701
 H         -5.1441475193       -6.3301783378        1.1045005942
 N         -5.1298445357       -4.0754479395        2.1900955007
 H         -5.7216857383       -4.7353518238        2.6602363524
 H         -5.1232046951       -3.1273543776        2.5208141193
 C         -1.9615880684        2.5598359993        1.4335943849
 O         -2.4092007614        1.7169089988        0.6650576754
 N         -0.6415085824        2.8109972580        1.5456154498
 H          0.0150232452        2.1744200577        1.0888543229
 H         -0.3015936456        3.3777616392        2.3019279925
 N         -2.7820370202        3.2969311958        2.2342885554
 H         -2.4408957172        4.1063470256        2.7210482373
 H         -3.7694288042        3.2527921679        2.0526306730
