 xtb: 6.6.1 (unknown-commit)
          01102415353D

 53 48  0     0  0            999 V2000
   -2.3154    0.3016   -3.3021 O   0  0  0  0  0  0  0  0  0  0  0  0
   -1.5768   -0.8063   -2.8735 C   0  0  0  0  0  0  0  0  0  0  0  0
   -1.9866   -1.6746   -3.3938 H   0  0  0  0  0  0  0  0  0  0  0  0
   -0.5256   -0.7072   -3.1766 H   0  0  0  0  0  0  0  0  0  0  0  0
   -1.5712   -0.9939   -1.3514 C   0  0  0  0  0  0  0  0  0  0  0  0
   -1.2860   -0.0436   -0.8965 H   0  0  0  0  0  0  0  0  0  0  0  0
   -0.8326   -1.7546   -1.0821 H   0  0  0  0  0  0  0  0  0  0  0  0
   -2.8575   -1.4084   -0.7248 N   0  0  0  0  0  0  0  0  0  0  0  0
   -3.8829   -0.3710   -0.9164 C   0  0  0  0  0  0  0  0  0  0  0  0
   -3.5645    0.5458   -0.4228 H   0  0  0  0  0  0  0  0  0  0  0  0
   -4.8286   -0.6977   -0.4882 H   0  0  0  0  0  0  0  0  0  0  0  0
   -4.0104   -0.1675   -1.9788 H   0  0  0  0  0  0  0  0  0  0  0  0
   -2.6088   -1.5881    0.7177 C   0  0  0  0  0  0  0  0  0  0  0  0
   -2.2306   -0.6589    1.1462 H   0  0  0  0  0  0  0  0  0  0  0  0
   -1.8549   -2.3629    0.8566 H   0  0  0  0  0  0  0  0  0  0  0  0
   -3.5291   -1.8722    1.2228 H   0  0  0  0  0  0  0  0  0  0  0  0
   -3.3199   -2.6885   -1.2818 C   0  0  0  0  0  0  0  0  0  0  0  0
   -3.6148   -2.5689   -2.3215 H   0  0  0  0  0  0  0  0  0  0  0  0
   -4.1791   -3.0476   -0.7180 H   0  0  0  0  0  0  0  0  0  0  0  0
   -2.5182   -3.4218   -1.2112 H   0  0  0  0  0  0  0  0  0  0  0  0
   -1.8900    1.0995   -2.9300 H   0  0  0  0  0  0  0  0  0  0  0  0
    4.8882    0.2148    1.7927 C   0  0  0  0  0  0  0  0  0  0  0  0
    3.7464   -0.1335    1.4964 O   0  0  0  0  0  0  0  0  0  0  0  0
    5.1221    1.2126    2.6708 N   0  0  0  0  0  0  0  0  0  0  0  0
    4.3436    1.6671    3.1137 H   0  0  0  0  0  0  0  0  0  0  0  0
    6.0497    1.4861    2.9380 H   0  0  0  0  0  0  0  0  0  0  0  0
    5.9748   -0.3796    1.2578 N   0  0  0  0  0  0  0  0  0  0  0  0
    6.9096   -0.0893    1.4782 H   0  0  0  0  0  0  0  0  0  0  0  0
    5.8490   -1.1119    0.5820 H   0  0  0  0  0  0  0  0  0  0  0  0
   -1.9312    3.0785   -1.2732 C   0  0  0  0  0  0  0  0  0  0  0  0
   -1.1505    2.2651   -1.7785 O   0  0  0  0  0  0  0  0  0  0  0  0
   -2.3994    4.1292   -1.9806 N   0  0  0  0  0  0  0  0  0  0  0  0
   -2.1275    4.2220   -2.9432 H   0  0  0  0  0  0  0  0  0  0  0  0
   -3.0716    4.7736   -1.6072 H   0  0  0  0  0  0  0  0  0  0  0  0
   -2.3907    2.9238   -0.0170 N   0  0  0  0  0  0  0  0  0  0  0  0
   -2.8905    3.6661    0.4391 H   0  0  0  0  0  0  0  0  0  0  0  0
   -1.9183    2.2294    0.5738 H   0  0  0  0  0  0  0  0  0  0  0  0
    1.1580   -2.4881    0.6484 C   0  0  0  0  0  0  0  0  0  0  0  0
    0.1128   -2.9525    0.2102 O   0  0  0  0  0  0  0  0  0  0  0  0
    2.0385   -1.8014   -0.1160 N   0  0  0  0  0  0  0  0  0  0  0  0
    1.7541   -1.5400   -1.0433 H   0  0  0  0  0  0  0  0  0  0  0  0
    2.7659   -1.2569    0.3277 H   0  0  0  0  0  0  0  0  0  0  0  0
    1.5092   -2.6056    1.9576 N   0  0  0  0  0  0  0  0  0  0  0  0
    2.4369   -2.3458    2.2437 H   0  0  0  0  0  0  0  0  0  0  0  0
    1.0228   -3.2891    2.5114 H   0  0  0  0  0  0  0  0  0  0  0  0
    0.2305    0.9370    1.2192 C   0  0  0  0  0  0  0  0  0  0  0  0
   -0.9975    0.9666    1.3560 O   0  0  0  0  0  0  0  0  0  0  0  0
    0.8166    1.2347    0.0405 N   0  0  0  0  0  0  0  0  0  0  0  0
    0.2477    1.6484   -0.6952 H   0  0  0  0  0  0  0  0  0  0  0  0
    1.8158    1.3148   -0.0145 H   0  0  0  0  0  0  0  0  0  0  0  0
    1.0555    0.6051    2.2338 N   0  0  0  0  0  0  0  0  0  0  0  0
    2.0245    0.3756    2.0458 H   0  0  0  0  0  0  0  0  0  0  0  0
    0.6314    0.2172    3.0586 H   0  0  0  0  0  0  0  0  0  0  0  0
  1  2  1  0  0  0  0
  2  3  1  0  0  0  0
  2  4  1  0  0  0  0
  2  5  1  0  0  0  0
  5  6  1  0  0  0  0
  5  7  1  0  0  0  0
  5  8  1  0  0  0  0
  8  9  1  0  0  0  0
  9 10  1  0  0  0  0
  9 11  1  0  0  0  0
  9 12  1  0  0  0  0
  8 13  1  0  0  0  0
 13 14  1  0  0  0  0
 13 15  1  0  0  0  0
 13 16  1  0  0  0  0
  8 17  1  0  0  0  0
 17 18  1  0  0  0  0
 17 19  1  0  0  0  0
 17 20  1  0  0  0  0
  1 21  1  0  0  0  0
 22 23  4  0  0  0  0
 22 24  4  0  0  0  0
 24 25  1  0  0  0  0
 24 26  1  0  0  0  0
 22 27  4  0  0  0  0
 27 28  1  0  0  0  0
 27 29  1  0  0  0  0
 30 31  4  0  0  0  0
 30 32  4  0  0  0  0
 32 33  1  0  0  0  0
 32 34  1  0  0  0  0
 30 35  4  0  0  0  0
 35 36  1  0  0  0  0
 35 37  1  0  0  0  0
 38 39  2  0  0  0  0
 38 40  4  0  0  0  0
 40 41  1  0  0  0  0
 40 42  1  0  0  0  0
 38 43  1  0  0  0  0
 43 44  1  0  0  0  0
 43 45  1  0  0  0  0
 46 47  4  0  0  0  0
 46 48  4  0  0  0  0
 48 49  1  0  0  0  0
 48 50  1  0  0  0  0
 46 51  4  0  0  0  0
 51 52  1  0  0  0  0
 51 53  1  0  0  0  0
M  CHG  1   1   1
M  END
