 xtb: 6.6.1 (unknown-commit)
          01102415403D

 53 48  0     0  0            999 V2000
    0.7485    1.8495   -2.6732 O   0  0  0  0  0  0  0  0  0  0  0  0
    0.3763    0.5107   -2.8412 C   0  0  0  0  0  0  0  0  0  0  0  0
   -0.6405    0.3475   -2.4615 H   0  0  0  0  0  0  0  0  0  0  0  0
    0.3944    0.3384   -3.9210 H   0  0  0  0  0  0  0  0  0  0  0  0
    1.3686   -0.4073   -2.1049 C   0  0  0  0  0  0  0  0  0  0  0  0
    1.4239   -0.0767   -1.0642 H   0  0  0  0  0  0  0  0  0  0  0  0
    2.3553   -0.2783   -2.5559 H   0  0  0  0  0  0  0  0  0  0  0  0
    1.0380   -1.8567   -2.1020 N   0  0  0  0  0  0  0  0  0  0  0  0
   -0.1488   -2.1182   -1.2666 C   0  0  0  0  0  0  0  0  0  0  0  0
    0.0922   -1.9368   -0.2228 H   0  0  0  0  0  0  0  0  0  0  0  0
   -0.4592   -3.1544   -1.3814 H   0  0  0  0  0  0  0  0  0  0  0  0
   -0.9713   -1.4601   -1.5352 H   0  0  0  0  0  0  0  0  0  0  0  0
    2.1844   -2.5825   -1.5217 C   0  0  0  0  0  0  0  0  0  0  0  0
    2.4022   -2.1810   -0.5284 H   0  0  0  0  0  0  0  0  0  0  0  0
    3.0631   -2.4676   -2.1526 H   0  0  0  0  0  0  0  0  0  0  0  0
    1.9485   -3.6412   -1.4345 H   0  0  0  0  0  0  0  0  0  0  0  0
    0.7933   -2.3407   -3.4705 C   0  0  0  0  0  0  0  0  0  0  0  0
    1.6140   -2.0503   -4.1241 H   0  0  0  0  0  0  0  0  0  0  0  0
   -0.1337   -1.9240   -3.8570 H   0  0  0  0  0  0  0  0  0  0  0  0
    0.7146   -3.4268   -3.4706 H   0  0  0  0  0  0  0  0  0  0  0  0
    0.8647    2.0271   -1.7152 H   0  0  0  0  0  0  0  0  0  0  0  0
    1.0355   -0.9470    1.7806 C   0  0  0  0  0  0  0  0  0  0  0  0
    2.0889   -1.0530    1.1337 O   0  0  0  0  0  0  0  0  0  0  0  0
    0.5411   -2.0006    2.4900 N   0  0  0  0  0  0  0  0  0  0  0  0
    1.1821   -2.7348    2.7389 H   0  0  0  0  0  0  0  0  0  0  0  0
   -0.2248   -1.8273    3.1197 H   0  0  0  0  0  0  0  0  0  0  0  0
    0.2831    0.1539    1.7658 N   0  0  0  0  0  0  0  0  0  0  0  0
   -0.6308    0.1389    2.2014 H   0  0  0  0  0  0  0  0  0  0  0  0
    0.5331    0.9191    1.1452 H   0  0  0  0  0  0  0  0  0  0  0  0
   -2.0236    1.5826   -0.2966 C   0  0  0  0  0  0  0  0  0  0  0  0
   -1.9754    0.4291   -0.7387 O   0  0  0  0  0  0  0  0  0  0  0  0
   -2.3767    1.8456    0.9739 N   0  0  0  0  0  0  0  0  0  0  0  0
   -2.4825    1.0832    1.6369 H   0  0  0  0  0  0  0  0  0  0  0  0
   -2.3611    2.7830    1.3312 H   0  0  0  0  0  0  0  0  0  0  0  0
   -1.7810    2.6550   -1.0842 N   0  0  0  0  0  0  0  0  0  0  0  0
   -1.6858    3.5689   -0.6800 H   0  0  0  0  0  0  0  0  0  0  0  0
   -1.3781    2.5174   -1.9960 H   0  0  0  0  0  0  0  0  0  0  0  0
   -3.0494   -1.3381    2.1973 C   0  0  0  0  0  0  0  0  0  0  0  0
   -2.3534   -0.4479    2.6915 O   0  0  0  0  0  0  0  0  0  0  0  0
   -3.1130   -1.5362    0.8687 N   0  0  0  0  0  0  0  0  0  0  0  0
   -2.7007   -0.8260    0.2513 H   0  0  0  0  0  0  0  0  0  0  0  0
   -3.7884   -2.1695    0.4806 H   0  0  0  0  0  0  0  0  0  0  0  0
   -3.7201   -2.2149    2.9850 N   0  0  0  0  0  0  0  0  0  0  0  0
   -4.3969   -2.8533    2.6080 H   0  0  0  0  0  0  0  0  0  0  0  0
   -3.7490   -2.0307    3.9727 H   0  0  0  0  0  0  0  0  0  0  0  0
    2.5130    2.3525    0.2411 C   0  0  0  0  0  0  0  0  0  0  0  0
    1.3304    2.1058   -0.0341 O   0  0  0  0  0  0  0  0  0  0  0  0
    3.3468    1.3984    0.6787 N   0  0  0  0  0  0  0  0  0  0  0  0
    2.9663    0.4704    0.8870 H   0  0  0  0  0  0  0  0  0  0  0  0
    4.2701    1.6220    1.0023 H   0  0  0  0  0  0  0  0  0  0  0  0
    3.0168    3.5961    0.0856 N   0  0  0  0  0  0  0  0  0  0  0  0
    3.9864    3.8033    0.2397 H   0  0  0  0  0  0  0  0  0  0  0  0
    2.4355    4.3057   -0.3233 H   0  0  0  0  0  0  0  0  0  0  0  0
  1  2  1  0  0  0  0
  2  3  1  0  0  0  0
  2  4  1  0  0  0  0
  2  5  1  0  0  0  0
  5  6  1  0  0  0  0
  5  7  1  0  0  0  0
  5  8  1  0  0  0  0
  8  9  1  0  0  0  0
  9 10  1  0  0  0  0
  9 11  1  0  0  0  0
  9 12  1  0  0  0  0
  8 13  1  0  0  0  0
 13 14  1  0  0  0  0
 13 15  1  0  0  0  0
 13 16  1  0  0  0  0
  8 17  1  0  0  0  0
 17 18  1  0  0  0  0
 17 19  1  0  0  0  0
 17 20  1  0  0  0  0
  1 21  1  0  0  0  0
 22 23  4  0  0  0  0
 22 24  1  0  0  0  0
 24 25  1  0  0  0  0
 24 26  1  0  0  0  0
 22 27  4  0  0  0  0
 27 28  1  0  0  0  0
 27 29  1  0  0  0  0
 30 31  4  0  0  0  0
 30 32  4  0  0  0  0
 32 33  1  0  0  0  0
 32 34  1  0  0  0  0
 30 35  4  0  0  0  0
 35 36  1  0  0  0  0
 35 37  1  0  0  0  0
 38 39  4  0  0  0  0
 38 40  4  0  0  0  0
 40 41  1  0  0  0  0
 40 42  1  0  0  0  0
 38 43  4  0  0  0  0
 43 44  1  0  0  0  0
 43 45  1  0  0  0  0
 46 47  4  0  0  0  0
 46 48  4  0  0  0  0
 48 49  1  0  0  0  0
 48 50  1  0  0  0  0
 46 51  4  0  0  0  0
 51 52  1  0  0  0  0
 51 53  1  0  0  0  0
M  CHG  1   1   1
M  END
