  53

 O          3.0002704910        0.4235369761       -0.6647035722
 C          2.7680873318       -0.4024065384        0.4433339806
 H          3.7114215448       -0.9105149489        0.6547167744
 H          2.5144994216        0.1999357253        1.3273633086
 C          1.6146836643       -1.3924442871        0.2608478857
 H          0.7220805944       -0.8431536682       -0.0479949123
 H          1.4098546601       -1.8809794875        1.2183465561
 N          1.8255786633       -2.4842402811       -0.7304273691
 C          2.0067807174       -1.9326400275       -2.0814761427
 H          1.1058640753       -1.3970776343       -2.3752953402
 H          2.1918575894       -2.7363372399       -2.7917750172
 H          2.8431513760       -1.2353886130       -2.0916304914
 C          0.6258528648       -3.3416866037       -0.7082446246
 H         -0.2647966364       -2.7383414206       -0.8755096819
 H          0.5445245367       -3.8024421877        0.2759689516
 H          0.7020363671       -4.1118713995       -1.4720808482
 C          2.9853937330       -3.3069090696       -0.3542852695
 H          3.9077724308       -2.7413210228       -0.4602824054
 H          3.0403353901       -4.1828841700       -0.9980382248
 H          2.8683846986       -3.6317601251        0.6786616781
 H          2.1899055348        0.9668264436       -0.8152987239
 C         -0.2511731251       -3.2038793296        2.9812779657
 O          0.7770087708       -3.4073920430        2.3432207995
 N         -1.2104030822       -2.3459497959        2.5617554585
 H         -1.1946206160       -1.9975049467        1.6071054281
 H         -2.0968290805       -2.3210400168        3.0337289783
 N         -0.4784118570       -3.8151416948        4.1693012657
 H         -1.2642091239       -3.5854098424        4.7493964488
 H          0.2574641803       -4.3736501723        4.5633173407
 C          1.0368548512        2.9455615346        0.1163961034
 O          0.8154198697        2.0126731694       -0.6707085783
 N          2.2733551458        3.1381426701        0.6326031395
 H          3.0391197787        2.6012948677        0.2579348793
 H          2.4907742147        3.9516905206        1.1790612806
 N          0.0635477676        3.7645429114        0.5326219599
 H          0.2544310881        4.5386114581        1.1420429349
 H         -0.8797583417        3.6606378641        0.1527585777
 C         -2.2990260841        3.3018812208       -1.9315759681
 O         -2.4246631662        3.3805709926       -0.7060971892
 N         -1.2262045469        2.7272645240       -2.4980635682
 H         -0.4842377983        2.3684744947       -1.8974546692
 H         -1.1179011368        2.6757559856       -3.4938618115
 N         -3.2758122698        3.7428126431       -2.7621402275
 H         -3.1227117191        3.8327908562       -3.7505234924
 H         -4.0224209742        4.2802542906       -2.3559350220
 C         -2.0879650610       -0.1142341800       -0.2127783448
 O         -1.4755617930       -1.1745798179       -0.0872992382
 N         -2.9505493007        0.0898563598       -1.2411783116
 H         -3.2436001512       -0.7093605639       -1.7756032271
 H         -3.5533013647        0.8933641133       -1.2322188827
 N         -1.9536286729        0.9150329509        0.6471317266
 H         -2.2632426006        1.8395797202        0.3663513437
 H         -1.1992225593        0.8688404446        1.3103804181
