 xtb: 6.6.1 (unknown-commit)
          01102418273D

 53 48  0     0  0            999 V2000
    3.0003    0.4235   -0.6647 O   0  0  0  0  0  0  0  0  0  0  0  0
    2.7681   -0.4024    0.4433 C   0  0  0  0  0  0  0  0  0  0  0  0
    3.7114   -0.9105    0.6547 H   0  0  0  0  0  0  0  0  0  0  0  0
    2.5145    0.1999    1.3274 H   0  0  0  0  0  0  0  0  0  0  0  0
    1.6147   -1.3925    0.2608 C   0  0  0  0  0  0  0  0  0  0  0  0
    0.7221   -0.8432   -0.0480 H   0  0  0  0  0  0  0  0  0  0  0  0
    1.4098   -1.8810    1.2183 H   0  0  0  0  0  0  0  0  0  0  0  0
    1.8256   -2.4843   -0.7304 N   0  0  0  0  0  0  0  0  0  0  0  0
    2.0068   -1.9327   -2.0815 C   0  0  0  0  0  0  0  0  0  0  0  0
    1.1058   -1.3971   -2.3753 H   0  0  0  0  0  0  0  0  0  0  0  0
    2.1918   -2.7364   -2.7918 H   0  0  0  0  0  0  0  0  0  0  0  0
    2.8431   -1.2354   -2.0916 H   0  0  0  0  0  0  0  0  0  0  0  0
    0.6258   -3.3417   -0.7082 C   0  0  0  0  0  0  0  0  0  0  0  0
   -0.2648   -2.7383   -0.8755 H   0  0  0  0  0  0  0  0  0  0  0  0
    0.5445   -3.8024    0.2760 H   0  0  0  0  0  0  0  0  0  0  0  0
    0.7020   -4.1119   -1.4721 H   0  0  0  0  0  0  0  0  0  0  0  0
    2.9854   -3.3069   -0.3543 C   0  0  0  0  0  0  0  0  0  0  0  0
    3.9078   -2.7413   -0.4603 H   0  0  0  0  0  0  0  0  0  0  0  0
    3.0403   -4.1829   -0.9980 H   0  0  0  0  0  0  0  0  0  0  0  0
    2.8684   -3.6318    0.6787 H   0  0  0  0  0  0  0  0  0  0  0  0
    2.1899    0.9668   -0.8153 H   0  0  0  0  0  0  0  0  0  0  0  0
   -0.2512   -3.2039    2.9813 C   0  0  0  0  0  0  0  0  0  0  0  0
    0.7770   -3.4074    2.3432 O   0  0  0  0  0  0  0  0  0  0  0  0
   -1.2104   -2.3459    2.5618 N   0  0  0  0  0  0  0  0  0  0  0  0
   -1.1946   -1.9975    1.6071 H   0  0  0  0  0  0  0  0  0  0  0  0
   -2.0968   -2.3210    3.0337 H   0  0  0  0  0  0  0  0  0  0  0  0
   -0.4784   -3.8151    4.1693 N   0  0  0  0  0  0  0  0  0  0  0  0
   -1.2642   -3.5854    4.7494 H   0  0  0  0  0  0  0  0  0  0  0  0
    0.2575   -4.3736    4.5633 H   0  0  0  0  0  0  0  0  0  0  0  0
    1.0369    2.9456    0.1164 C   0  0  0  0  0  0  0  0  0  0  0  0
    0.8154    2.0127   -0.6707 O   0  0  0  0  0  0  0  0  0  0  0  0
    2.2734    3.1381    0.6326 N   0  0  0  0  0  0  0  0  0  0  0  0
    3.0391    2.6013    0.2579 H   0  0  0  0  0  0  0  0  0  0  0  0
    2.4908    3.9517    1.1790 H   0  0  0  0  0  0  0  0  0  0  0  0
    0.0636    3.7645    0.5326 N   0  0  0  0  0  0  0  0  0  0  0  0
    0.2545    4.5386    1.1420 H   0  0  0  0  0  0  0  0  0  0  0  0
   -0.8797    3.6606    0.1528 H   0  0  0  0  0  0  0  0  0  0  0  0
   -2.2990    3.3019   -1.9316 C   0  0  0  0  0  0  0  0  0  0  0  0
   -2.4246    3.3806   -0.7061 O   0  0  0  0  0  0  0  0  0  0  0  0
   -1.2262    2.7273   -2.4981 N   0  0  0  0  0  0  0  0  0  0  0  0
   -0.4842    2.3685   -1.8975 H   0  0  0  0  0  0  0  0  0  0  0  0
   -1.1179    2.6758   -3.4939 H   0  0  0  0  0  0  0  0  0  0  0  0
   -3.2758    3.7428   -2.7621 N   0  0  0  0  0  0  0  0  0  0  0  0
   -3.1227    3.8328   -3.7505 H   0  0  0  0  0  0  0  0  0  0  0  0
   -4.0224    4.2803   -2.3559 H   0  0  0  0  0  0  0  0  0  0  0  0
   -2.0880   -0.1142   -0.2128 C   0  0  0  0  0  0  0  0  0  0  0  0
   -1.4756   -1.1746   -0.0873 O   0  0  0  0  0  0  0  0  0  0  0  0
   -2.9506    0.0899   -1.2412 N   0  0  0  0  0  0  0  0  0  0  0  0
   -3.2436   -0.7093   -1.7756 H   0  0  0  0  0  0  0  0  0  0  0  0
   -3.5533    0.8934   -1.2322 H   0  0  0  0  0  0  0  0  0  0  0  0
   -1.9536    0.9150    0.6471 N   0  0  0  0  0  0  0  0  0  0  0  0
   -2.2632    1.8396    0.3664 H   0  0  0  0  0  0  0  0  0  0  0  0
   -1.1992    0.8688    1.3104 H   0  0  0  0  0  0  0  0  0  0  0  0
  1  2  1  0  0  0  0
  2  3  1  0  0  0  0
  2  4  1  0  0  0  0
  2  5  1  0  0  0  0
  5  6  1  0  0  0  0
  5  7  1  0  0  0  0
  5  8  1  0  0  0  0
  8  9  1  0  0  0  0
  9 10  1  0  0  0  0
  9 11  1  0  0  0  0
  9 12  1  0  0  0  0
  8 13  1  0  0  0  0
 13 14  1  0  0  0  0
 13 15  1  0  0  0  0
 13 16  1  0  0  0  0
  8 17  1  0  0  0  0
 17 18  1  0  0  0  0
 17 19  1  0  0  0  0
 17 20  1  0  0  0  0
  1 21  1  0  0  0  0
 22 23  2  0  0  0  0
 22 24  4  0  0  0  0
 24 25  1  0  0  0  0
 24 26  1  0  0  0  0
 22 27  4  0  0  0  0
 27 28  1  0  0  0  0
 27 29  1  0  0  0  0
 30 31  4  0  0  0  0
 30 32  4  0  0  0  0
 32 33  1  0  0  0  0
 32 34  1  0  0  0  0
 30 35  4  0  0  0  0
 35 36  1  0  0  0  0
 35 37  1  0  0  0  0
 38 39  4  0  0  0  0
 38 40  4  0  0  0  0
 40 41  1  0  0  0  0
 40 42  1  0  0  0  0
 38 43  4  0  0  0  0
 43 44  1  0  0  0  0
 43 45  1  0  0  0  0
 46 47  2  0  0  0  0
 46 48  4  0  0  0  0
 48 49  1  0  0  0  0
 48 50  1  0  0  0  0
 46 51  4  0  0  0  0
 51 52  1  0  0  0  0
 51 53  1  0  0  0  0
M  CHG  1   1   1
M  END
