  53

 O         -0.6955392262       -3.8653020466       -4.3986650451
 C         -1.5492178087       -3.3961856901       -3.3760186190
 H         -2.0608054862       -2.4781785874       -3.6915813035
 H         -2.3182770154       -4.1419774915       -3.1402668313
 C         -0.7718848314       -3.1621429955       -2.0800124774
 H         -0.3692643818       -4.1162352291       -1.7354998895
 H         -1.4819118511       -2.7719673437       -1.3463416660
 N          0.3569880288       -2.1959275663       -2.1459508425
 C          0.7736944262       -1.9006935832       -0.7634771334
 H         -0.0726688197       -1.4603292568       -0.2371270481
 H          1.5939717433       -1.1858294566       -0.7845582480
 H          1.0895577011       -2.8110641720       -0.2595886583
 C         -0.0646285775       -0.9330248296       -2.7710215840
 H         -0.3025964955       -1.0934674888       -3.8187954012
 H          0.7526420942       -0.2191516562       -2.6973417406
 H         -0.9330212239       -0.5533900186       -2.2342699194
 C          1.5075997322       -2.7416615632       -2.8822522245
 H          1.2113332605       -3.0057075163       -3.8942905414
 H          1.8803301208       -3.6346918532       -2.3846683322
 H          2.2957960963       -1.9913039752       -2.9077916400
 H         -1.2197611491       -4.2353667429       -5.1154232679
 C          3.6318545745        0.6489878129       -0.7921522875
 O          2.7178071443        0.3986265982       -1.5849461290
 N          4.9263555011        0.6194579814       -1.1895116791
 H          5.1239476827        0.5089434334       -2.1680438129
 H          5.6732776148        0.9122745673       -0.5866600543
 N          3.3965272814        0.9017424024        0.5042805040
 H          4.1421367584        1.1475894342        1.1290271553
 H          2.4313812745        0.9803210311        0.8395991668
 C          0.0520820057        1.8833586434        0.4420196780
 O          0.7339885021        1.2801964451        1.2855403201
 N          0.3674479413        1.8340265040       -0.8667873790
 H          1.2301140263        1.3735286269       -1.1510713591
 H         -0.1070439199        2.4177149976       -1.5308034067
 N         -1.0193020449        2.6174362737        0.7903817877
 H         -1.6259871158        2.9904486026        0.0825708036
 H         -1.4093688145        2.5103012422        1.7270965502
 C         -2.4368555421       -0.2559654167        0.6411037790
 O         -2.0740990020       -0.9141714337       -0.3324353185
 N         -3.4816919165        0.6097295019        0.5727301412
 H         -4.1171144073        0.5272774507       -0.2015136237
 H         -3.8230126555        1.0340187229        1.4181864631
 N         -1.8356245688       -0.3284358843        1.8482027348
 H         -2.0132102141        0.4156698229        2.5171494853
 H         -0.9239511817       -0.7516383544        1.8966041767
 C         -1.1608173581        2.1761832955        4.2316064329
 O         -2.0374784620        2.0557859348        3.3691386528
 N          0.1200639176        1.8513700176        3.9864544171
 H          0.3941664200        1.6065823693        3.0320044963
 H          0.8388717761        2.0267886241        4.6641454339
 N         -1.4601410293        2.6252970753        5.4700898767
 H         -0.7763293198        2.6883868916        6.2013084444
 H         -2.4197049090        2.8257811139        5.6880317388
