 xtb: 6.6.1 (unknown-commit)
          01102415353D

 53 48  0     0  0            999 V2000
   -0.6956   -3.8653   -4.3987 O   0  0  0  0  0  0  0  0  0  0  0  0
   -1.5492   -3.3962   -3.3760 C   0  0  0  0  0  0  0  0  0  0  0  0
   -2.0608   -2.4782   -3.6916 H   0  0  0  0  0  0  0  0  0  0  0  0
   -2.3183   -4.1420   -3.1403 H   0  0  0  0  0  0  0  0  0  0  0  0
   -0.7719   -3.1621   -2.0800 C   0  0  0  0  0  0  0  0  0  0  0  0
   -0.3693   -4.1162   -1.7355 H   0  0  0  0  0  0  0  0  0  0  0  0
   -1.4819   -2.7720   -1.3463 H   0  0  0  0  0  0  0  0  0  0  0  0
    0.3570   -2.1959   -2.1459 N   0  0  0  0  0  0  0  0  0  0  0  0
    0.7737   -1.9007   -0.7635 C   0  0  0  0  0  0  0  0  0  0  0  0
   -0.0727   -1.4603   -0.2371 H   0  0  0  0  0  0  0  0  0  0  0  0
    1.5940   -1.1858   -0.7846 H   0  0  0  0  0  0  0  0  0  0  0  0
    1.0895   -2.8111   -0.2596 H   0  0  0  0  0  0  0  0  0  0  0  0
   -0.0646   -0.9330   -2.7710 C   0  0  0  0  0  0  0  0  0  0  0  0
   -0.3026   -1.0935   -3.8188 H   0  0  0  0  0  0  0  0  0  0  0  0
    0.7526   -0.2192   -2.6973 H   0  0  0  0  0  0  0  0  0  0  0  0
   -0.9330   -0.5534   -2.2343 H   0  0  0  0  0  0  0  0  0  0  0  0
    1.5076   -2.7417   -2.8823 C   0  0  0  0  0  0  0  0  0  0  0  0
    1.2113   -3.0057   -3.8943 H   0  0  0  0  0  0  0  0  0  0  0  0
    1.8803   -3.6347   -2.3847 H   0  0  0  0  0  0  0  0  0  0  0  0
    2.2958   -1.9913   -2.9078 H   0  0  0  0  0  0  0  0  0  0  0  0
   -1.2198   -4.2354   -5.1154 H   0  0  0  0  0  0  0  0  0  0  0  0
    3.6319    0.6490   -0.7922 C   0  0  0  0  0  0  0  0  0  0  0  0
    2.7178    0.3986   -1.5850 O   0  0  0  0  0  0  0  0  0  0  0  0
    4.9264    0.6194   -1.1895 N   0  0  0  0  0  0  0  0  0  0  0  0
    5.1239    0.5089   -2.1681 H   0  0  0  0  0  0  0  0  0  0  0  0
    5.6733    0.9122   -0.5867 H   0  0  0  0  0  0  0  0  0  0  0  0
    3.3965    0.9017    0.5043 N   0  0  0  0  0  0  0  0  0  0  0  0
    4.1421    1.1476    1.1290 H   0  0  0  0  0  0  0  0  0  0  0  0
    2.4314    0.9803    0.8396 H   0  0  0  0  0  0  0  0  0  0  0  0
    0.0521    1.8834    0.4420 C   0  0  0  0  0  0  0  0  0  0  0  0
    0.7340    1.2802    1.2855 O   0  0  0  0  0  0  0  0  0  0  0  0
    0.3675    1.8340   -0.8668 N   0  0  0  0  0  0  0  0  0  0  0  0
    1.2301    1.3735   -1.1511 H   0  0  0  0  0  0  0  0  0  0  0  0
   -0.1070    2.4177   -1.5308 H   0  0  0  0  0  0  0  0  0  0  0  0
   -1.0193    2.6174    0.7904 N   0  0  0  0  0  0  0  0  0  0  0  0
   -1.6260    2.9905    0.0826 H   0  0  0  0  0  0  0  0  0  0  0  0
   -1.4093    2.5103    1.7271 H   0  0  0  0  0  0  0  0  0  0  0  0
   -2.4369   -0.2560    0.6411 C   0  0  0  0  0  0  0  0  0  0  0  0
   -2.0741   -0.9142   -0.3324 O   0  0  0  0  0  0  0  0  0  0  0  0
   -3.4817    0.6097    0.5727 N   0  0  0  0  0  0  0  0  0  0  0  0
   -4.1171    0.5273   -0.2015 H   0  0  0  0  0  0  0  0  0  0  0  0
   -3.8230    1.0340    1.4182 H   0  0  0  0  0  0  0  0  0  0  0  0
   -1.8356   -0.3284    1.8482 N   0  0  0  0  0  0  0  0  0  0  0  0
   -2.0132    0.4157    2.5172 H   0  0  0  0  0  0  0  0  0  0  0  0
   -0.9239   -0.7516    1.8966 H   0  0  0  0  0  0  0  0  0  0  0  0
   -1.1608    2.1762    4.2316 C   0  0  0  0  0  0  0  0  0  0  0  0
   -2.0375    2.0558    3.3691 O   0  0  0  0  0  0  0  0  0  0  0  0
    0.1201    1.8514    3.9865 N   0  0  0  0  0  0  0  0  0  0  0  0
    0.3942    1.6066    3.0320 H   0  0  0  0  0  0  0  0  0  0  0  0
    0.8389    2.0268    4.6641 H   0  0  0  0  0  0  0  0  0  0  0  0
   -1.4601    2.6253    5.4701 N   0  0  0  0  0  0  0  0  0  0  0  0
   -0.7763    2.6884    6.2013 H   0  0  0  0  0  0  0  0  0  0  0  0
   -2.4197    2.8258    5.6880 H   0  0  0  0  0  0  0  0  0  0  0  0
  1  2  1  0  0  0  0
  2  3  1  0  0  0  0
  2  4  1  0  0  0  0
  2  5  1  0  0  0  0
  5  6  1  0  0  0  0
  5  7  1  0  0  0  0
  5  8  1  0  0  0  0
  8  9  1  0  0  0  0
  9 10  1  0  0  0  0
  9 11  1  0  0  0  0
  9 12  1  0  0  0  0
  8 13  1  0  0  0  0
 13 14  1  0  0  0  0
 13 15  1  0  0  0  0
 13 16  1  0  0  0  0
  8 17  1  0  0  0  0
 17 18  1  0  0  0  0
 17 19  1  0  0  0  0
 17 20  1  0  0  0  0
  1 21  1  0  0  0  0
 22 23  4  0  0  0  0
 22 24  4  0  0  0  0
 24 25  1  0  0  0  0
 24 26  1  0  0  0  0
 22 27  4  0  0  0  0
 27 28  1  0  0  0  0
 27 29  1  0  0  0  0
 30 31  4  0  0  0  0
 30 32  4  0  0  0  0
 32 33  1  0  0  0  0
 32 34  1  0  0  0  0
 30 35  4  0  0  0  0
 35 36  1  0  0  0  0
 35 37  1  0  0  0  0
 38 39  2  0  0  0  0
 38 40  1  0  0  0  0
 40 41  1  0  0  0  0
 40 42  1  0  0  0  0
 38 43  4  0  0  0  0
 43 44  1  0  0  0  0
 43 45  1  0  0  0  0
 46 47  4  0  0  0  0
 46 48  4  0  0  0  0
 48 49  1  0  0  0  0
 48 50  1  0  0  0  0
 46 51  4  0  0  0  0
 51 52  1  0  0  0  0
 51 53  1  0  0  0  0
M  CHG  1   1   1
M  END
