53
 xtb: 6.6.1 (unknown-commit)
O           -3.11893390319620       -0.24121496381693       -0.96625596862945
C           -2.43617489728047       -0.61908222756867       -2.13355899576808
H           -2.84356867743000       -1.60245431195830       -2.41536734754580
H           -2.62813198496008        0.07882888411826       -2.94517276831298
C           -0.92870653331553       -0.70393993080944       -1.84000649704876
H           -0.81139052263599       -0.87915596063629       -0.75508437179408
H           -0.44746323584696        0.24456063938640       -2.07655779974418
N           -0.14578819041048       -1.77453194264882       -2.50584791186466
C           -0.18125695017966       -1.61226171135108       -3.96282375387170
H            0.23927849310160       -0.64245494588739       -4.21052681471558
H           -1.17760944807731       -1.70187131718366       -4.31319038522720
H            0.45148397954823       -2.38989931423587       -4.42105936477024
C           -0.63054098015185       -3.10492519050574       -2.10439901460185
H            0.06579901170690       -3.87591626994675       -2.45986949769017
H           -1.60313225655251       -3.29773428378309       -2.47230835213171
H           -0.62942970135444       -3.14937943873750       -0.99296710174781
C            1.24459542879336       -1.63251078985336       -2.02392359485327
H            1.26704487079557       -1.76442606124402       -0.92066833402884
H            1.62069624749343       -0.62326689766936       -2.23131464703859
H            1.90502053277638       -2.36387073972970       -2.47001316642704
H           -2.73255701228802        0.58532414018005       -0.64873422210758
C            2.55238328917235        0.00766784573353        3.90048928297263
O            1.51511065897577        0.17536915541322        3.26672833335203
N            3.34850608711065        1.04600187210752        4.25953656105563
H            3.06657793427390        1.93865355778768        4.13674350666884
H            4.17705081932123        0.82426382666660        4.83844088574246
N            2.97099001320469       -1.22266568148126        4.28694701527052
H            3.83817302539295       -1.45028946501507        4.61121930313238
H            2.42257598731102       -2.04479455785707        3.82862905280065
C           -0.64362131020157        1.46357611503101        0.79408351106770
O           -1.46640778655482        1.78092271897763       -0.07253494267574
N           -0.99433926440166        1.33211850647087        2.09185064150854
H           -1.92385342534306        1.68805391079505        2.37323542449571
H           -0.31069242230800        1.17242523147959        2.78102855311694
N            0.64525702903180        1.21213566792447        0.51173301134826
H            1.22104577004015        0.86571543231557        1.24726511191084
H            0.94794471264821        1.23808223404669       -0.44248633763840
C           -1.15011926572268       -1.71554674699102        1.74165482835094
O           -0.35199672409497       -1.86024266438478        0.81554093385497
N           -2.48912930396527       -1.72567017942989        1.53058053921053
H           -2.83108720138458       -1.55003450201287        0.59727234452564
H           -3.12434062496391       -1.50425929639342        2.28211823048719
N           -0.73433875334851       -1.63209231332544        3.03057864588256
H           -1.42191537125572       -1.33910617704604        3.74472233854280
H            0.18663231680417       -1.22279504198611        3.17636377045345
C            0.78511045653267        2.59444741301178       -2.72825070155357
O            1.19428568010306        1.48545941036556       -2.37043142176050
N           -0.35584429241474        3.11763970528155       -2.25494591640834
H           -0.84734478273042        2.65073560553227       -1.48681519070517
H           -0.65650566433582        4.04206473044423       -2.51500931491703
N            1.43875611264426        3.30410279909787       -3.68189253875291
H            1.17691851286898        4.24728755223584       -3.90817765198720
H            2.33514900604201        2.97618664031751       -3.98406221537124
