 xtb: 6.6.1 (unknown-commit)
          01102415413D

 53 48  0     0  0            999 V2000
   -2.0375   -0.3555   -1.2860 O   0  0  0  0  0  0  0  0  0  0  0  0
   -1.1864   -1.4656   -1.3198 C   0  0  0  0  0  0  0  0  0  0  0  0
   -1.8277   -2.3310   -1.5007 H   0  0  0  0  0  0  0  0  0  0  0  0
   -0.4778   -1.3775   -2.1549 H   0  0  0  0  0  0  0  0  0  0  0  0
   -0.3459   -1.6491   -0.0483 C   0  0  0  0  0  0  0  0  0  0  0  0
    0.0640   -0.6760    0.2357 H   0  0  0  0  0  0  0  0  0  0  0  0
    0.4837   -2.3214   -0.2741 H   0  0  0  0  0  0  0  0  0  0  0  0
   -1.0582   -2.1930    1.1409 N   0  0  0  0  0  0  0  0  0  0  0  0
   -2.1962   -1.3266    1.4871 C   0  0  0  0  0  0  0  0  0  0  0  0
   -1.8542   -0.3015    1.6141 H   0  0  0  0  0  0  0  0  0  0  0  0
   -2.6523   -1.6733    2.4118 H   0  0  0  0  0  0  0  0  0  0  0  0
   -2.9386   -1.3747    0.6907 H   0  0  0  0  0  0  0  0  0  0  0  0
   -0.1014   -2.2226    2.2621 C   0  0  0  0  0  0  0  0  0  0  0  0
    0.3381   -1.2329    2.4082 H   0  0  0  0  0  0  0  0  0  0  0  0
    0.6973   -2.9309    2.0498 H   0  0  0  0  0  0  0  0  0  0  0  0
   -0.6081   -2.5281    3.1748 H   0  0  0  0  0  0  0  0  0  0  0  0
   -1.5522   -3.5598    0.8973 C   0  0  0  0  0  0  0  0  0  0  0  0
   -0.7599   -4.1785    0.4819 H   0  0  0  0  0  0  0  0  0  0  0  0
   -2.4034   -3.5383    0.2178 H   0  0  0  0  0  0  0  0  0  0  0  0
   -1.8847   -3.9962    1.8369 H   0  0  0  0  0  0  0  0  0  0  0  0
   -1.5097    0.4598   -1.1425 H   0  0  0  0  0  0  0  0  0  0  0  0
    5.9812    2.1898   -0.8695 C   0  0  0  0  0  0  0  0  0  0  0  0
    4.9390    1.7715   -0.3851 O   0  0  0  0  0  0  0  0  0  0  0  0
    6.0051    3.2191   -1.7503 N   0  0  0  0  0  0  0  0  0  0  0  0
    5.1514    3.7215   -1.9171 H   0  0  0  0  0  0  0  0  0  0  0  0
    6.8653    3.6396   -2.0510 H   0  0  0  0  0  0  0  0  0  0  0  0
    7.1881    1.6557   -0.5592 N   0  0  0  0  0  0  0  0  0  0  0  0
    8.0234    1.9172   -1.0504 H   0  0  0  0  0  0  0  0  0  0  0  0
    7.2103    0.8130   -0.0129 H   0  0  0  0  0  0  0  0  0  0  0  0
   -1.1855    2.4952    0.3545 C   0  0  0  0  0  0  0  0  0  0  0  0
   -0.6683    1.8469   -0.5612 O   0  0  0  0  0  0  0  0  0  0  0  0
   -2.0379    3.5103    0.0940 N   0  0  0  0  0  0  0  0  0  0  0  0
   -2.2561    3.7210   -0.8633 H   0  0  0  0  0  0  0  0  0  0  0  0
   -2.4877    4.0377    0.8193 H   0  0  0  0  0  0  0  0  0  0  0  0
   -0.9700    2.1825    1.6464 N   0  0  0  0  0  0  0  0  0  0  0  0
   -1.2571    2.8136    2.3736 H   0  0  0  0  0  0  0  0  0  0  0  0
   -0.1782    1.5555    1.8468 H   0  0  0  0  0  0  0  0  0  0  0  0
   -4.8827   -2.3969   -1.4304 C   0  0  0  0  0  0  0  0  0  0  0  0
   -4.0625   -2.8532   -0.6435 O   0  0  0  0  0  0  0  0  0  0  0  0
   -4.7547   -1.1573   -1.9570 N   0  0  0  0  0  0  0  0  0  0  0  0
   -3.8721   -0.6831   -1.8132 H   0  0  0  0  0  0  0  0  0  0  0  0
   -5.3374   -0.8552   -2.7165 H   0  0  0  0  0  0  0  0  0  0  0  0
   -5.9740   -3.1041   -1.8190 N   0  0  0  0  0  0  0  0  0  0  0  0
   -6.7172   -2.6799   -2.3436 H   0  0  0  0  0  0  0  0  0  0  0  0
   -6.1684   -3.9674   -1.3434 H   0  0  0  0  0  0  0  0  0  0  0  0
    2.1747    0.7552    1.2724 C   0  0  0  0  0  0  0  0  0  0  0  0
    1.1743    0.4950    1.9638 O   0  0  0  0  0  0  0  0  0  0  0  0
    3.4255    0.5214    1.7142 N   0  0  0  0  0  0  0  0  0  0  0  0
    3.5649    0.3024    2.6842 H   0  0  0  0  0  0  0  0  0  0  0  0
    4.1975    0.8680    1.1608 H   0  0  0  0  0  0  0  0  0  0  0  0
    2.0741    1.1971    0.0095 N   0  0  0  0  0  0  0  0  0  0  0  0
    2.9149    1.4902   -0.4637 H   0  0  0  0  0  0  0  0  0  0  0  0
    1.1652    1.4659   -0.3537 H   0  0  0  0  0  0  0  0  0  0  0  0
  1  2  1  0  0  0  0
  2  3  1  0  0  0  0
  2  4  1  0  0  0  0
  2  5  1  0  0  0  0
  5  6  1  0  0  0  0
  5  7  1  0  0  0  0
  5  8  1  0  0  0  0
  8  9  1  0  0  0  0
  9 10  1  0  0  0  0
  9 11  1  0  0  0  0
  9 12  1  0  0  0  0
  8 13  1  0  0  0  0
 13 14  1  0  0  0  0
 13 15  1  0  0  0  0
 13 16  1  0  0  0  0
  8 17  1  0  0  0  0
 17 18  1  0  0  0  0
 17 19  1  0  0  0  0
 17 20  1  0  0  0  0
  1 21  1  0  0  0  0
 22 23  2  0  0  0  0
 22 24  4  0  0  0  0
 24 25  1  0  0  0  0
 24 26  1  0  0  0  0
 22 27  4  0  0  0  0
 27 28  1  0  0  0  0
 27 29  1  0  0  0  0
 30 31  4  0  0  0  0
 30 32  4  0  0  0  0
 32 33  1  0  0  0  0
 32 34  1  0  0  0  0
 30 35  4  0  0  0  0
 35 36  1  0  0  0  0
 35 37  1  0  0  0  0
 38 39  2  0  0  0  0
 38 40  4  0  0  0  0
 40 41  1  0  0  0  0
 40 42  1  0  0  0  0
 38 43  1  0  0  0  0
 43 44  1  0  0  0  0
 43 45  1  0  0  0  0
 46 47  4  0  0  0  0
 46 48  4  0  0  0  0
 48 49  1  0  0  0  0
 48 50  1  0  0  0  0
 46 51  4  0  0  0  0
 51 52  1  0  0  0  0
 51 53  1  0  0  0  0
M  CHG  1   1   1
M  END
