53
 xtb: 6.6.1 (unknown-commit)
O            0.16400077979988       -0.50501027169493        1.53950724358428
C           -1.09019018772544        0.09039715357856        1.68397195474907
H           -1.51536612885212       -0.30389289264612        2.61043777441499
H           -0.99029825234972        1.18049146717509        1.80630220774970
C           -2.04740255391867       -0.11811264993088        0.50136397916109
H           -1.64451154112223        0.36241553255320       -0.39060985805815
H           -3.00018479910252        0.33815473010228        0.77277901450817
N           -2.32840106270630       -1.53133659563972        0.12354670953662
C           -1.15124130767096       -2.13200875179611       -0.52430088276106
H           -1.37664386416755       -3.15498622918324       -0.81981609779501
H           -0.30980364117380       -2.13263386635342        0.17006727125386
H           -0.90019908092197       -1.54196551213430       -1.39960976354816
C           -3.44228486360236       -1.51060011023817       -0.83948542225174
H           -3.15766788277924       -0.90209850200337       -1.68691714010890
H           -4.32121973390226       -1.09542777979910       -0.34456686903270
H           -3.65895627221365       -2.52550056618303       -1.16841223243583
C           -2.72532441104416       -2.32252829752702        1.29694707632610
H           -3.55935144462682       -1.82423835827193        1.79356450885931
H           -1.88567706804708       -2.41552358036998        1.99190267739901
H           -3.03067926741673       -3.31741538591359        0.99059998320983
H            0.61850170469030       -0.09094067474157        0.75833508019578
C            7.22323116134011        0.16311556399836        0.51697460152234
O            6.03762830841168        0.16725874748781        0.21464715929898
N            8.19671747408530       -0.10969920601408       -0.38509879286068
H            7.92470791298735       -0.44162635891069       -1.29251746017604
H            9.15401637238447       -0.23640901768454       -0.10698295045396
N            7.64769364931709        0.42982564492045        1.77632815523183
H            8.62059770986271        0.55827763395797        1.98930597351058
H            6.97533209515333        0.77656750478268        2.44040597558216
C            2.71724871387757        0.47322329157317       -0.32392683054082
O            1.49422801177406        0.53246139572977       -0.52846076169728
N            3.62123000222026        0.77665091685185       -1.27234623653397
H            3.31902944403148        0.96624174681179       -2.21361041832289
H            4.60152967772246        0.65185606751673       -1.07066829463114
N            3.22871996434280        0.13400738621030        0.86972864281198
H            4.23239254641205        0.05372908979271        0.95986692660092
H            2.61612981665826       -0.14497486058183        1.61166711891784
C           -0.92528610317305        1.01166757976385       -3.24618257236197
O           -1.53800945512835        0.17563077901497       -2.59496453766438
N           -1.49166875878331        1.63202855320074       -4.31881753391511
H           -2.36706321840178        1.25666614679904       -4.66117196021781
H           -0.94336065198326        2.16616561570787       -4.95940313731771
N            0.33877483545809        1.37868745888920       -2.94832492053281
H            0.73945725623031        2.17848175163041       -3.39103616583494
H            0.73449982022863        1.05809311092224       -2.06339818419554
C           -6.05325544989759        0.25195794899421        2.08371035742501
O           -5.05747858899295       -0.23041629971357        1.56302514661730
N           -7.19982909059150        0.47965284777212        1.37966119628044
H           -7.17340353553670        0.34184083535136        0.38178100647326
H           -8.00377704835761        0.88472496982833        1.78861664869512
N           -6.08508651413400        0.59195488420817        3.40548235682186
H           -6.91605008918295        0.98814402535808        3.81594680136689
H           -5.32065761199255        0.36355648137972        3.97991365517931
