 xtb: 6.6.1 (unknown-commit)
          01102415353D

 53 48  0     0  0            999 V2000
   -2.5932   -2.3930   -1.1804 O   0  0  0  0  0  0  0  0  0  0  0  0
   -1.9434   -1.1549   -1.1602 C   0  0  0  0  0  0  0  0  0  0  0  0
   -1.6630   -0.9358   -2.1929 H   0  0  0  0  0  0  0  0  0  0  0  0
   -2.6272   -0.3620   -0.8284 H   0  0  0  0  0  0  0  0  0  0  0  0
   -0.7276   -1.0863   -0.2249 C   0  0  0  0  0  0  0  0  0  0  0  0
   -1.0511   -1.3338    0.7868 H   0  0  0  0  0  0  0  0  0  0  0  0
   -0.3365   -0.0670   -0.2508 H   0  0  0  0  0  0  0  0  0  0  0  0
    0.4130   -1.9885   -0.5490 N   0  0  0  0  0  0  0  0  0  0  0  0
    1.5039   -1.6646    0.3879 C   0  0  0  0  0  0  0  0  0  0  0  0
    1.7963   -0.6261    0.2352 H   0  0  0  0  0  0  0  0  0  0  0  0
    2.3562   -2.3149    0.2035 H   0  0  0  0  0  0  0  0  0  0  0  0
    1.1578   -1.8103    1.4109 H   0  0  0  0  0  0  0  0  0  0  0  0
    0.8873   -1.7558   -1.9211 C   0  0  0  0  0  0  0  0  0  0  0  0
    0.1346   -2.0671   -2.6404 H   0  0  0  0  0  0  0  0  0  0  0  0
    1.7964   -2.3272   -2.0975 H   0  0  0  0  0  0  0  0  0  0  0  0
    1.1032   -0.6925   -2.0335 H   0  0  0  0  0  0  0  0  0  0  0  0
    0.0301   -3.3974   -0.3731 C   0  0  0  0  0  0  0  0  0  0  0  0
   -0.8301   -3.6260   -1.0003 H   0  0  0  0  0  0  0  0  0  0  0  0
   -0.2331   -3.5685    0.6688 H   0  0  0  0  0  0  0  0  0  0  0  0
    0.8633   -4.0436   -0.6424 H   0  0  0  0  0  0  0  0  0  0  0  0
   -2.9763   -2.5555   -0.2948 H   0  0  0  0  0  0  0  0  0  0  0  0
    1.6903    2.2404   -1.2910 C   0  0  0  0  0  0  0  0  0  0  0  0
    1.3117    1.1195   -0.9477 O   0  0  0  0  0  0  0  0  0  0  0  0
    2.6937    2.8942   -0.6713 N   0  0  0  0  0  0  0  0  0  0  0  0
    3.1312    2.4918    0.1364 H   0  0  0  0  0  0  0  0  0  0  0  0
    2.9145    3.8372   -0.9500 H   0  0  0  0  0  0  0  0  0  0  0  0
    1.1738    2.8937   -2.3554 N   0  0  0  0  0  0  0  0  0  0  0  0
    1.4485    3.8553   -2.5027 H   0  0  0  0  0  0  0  0  0  0  0  0
    0.3356    2.5469   -2.7849 H   0  0  0  0  0  0  0  0  0  0  0  0
    2.9637    6.4060   -2.7538 C   0  0  0  0  0  0  0  0  0  0  0  0
    2.5460    5.4279   -2.1502 O   0  0  0  0  0  0  0  0  0  0  0  0
    3.1211    6.4103   -4.1013 N   0  0  0  0  0  0  0  0  0  0  0  0
    3.0176    5.5409   -4.5940 H   0  0  0  0  0  0  0  0  0  0  0  0
    3.5866    7.1632   -4.5746 H   0  0  0  0  0  0  0  0  0  0  0  0
    3.2987    7.5556   -2.1200 N   0  0  0  0  0  0  0  0  0  0  0  0
    3.5121    8.3962   -2.6254 H   0  0  0  0  0  0  0  0  0  0  0  0
    3.0754    7.6375   -1.1438 H   0  0  0  0  0  0  0  0  0  0  0  0
   -3.1156   -4.0749    1.8093 C   0  0  0  0  0  0  0  0  0  0  0  0
   -3.2764   -2.9139    1.4182 O   0  0  0  0  0  0  0  0  0  0  0  0
   -4.0488   -5.0230    1.5846 N   0  0  0  0  0  0  0  0  0  0  0  0
   -4.8748   -4.7721    1.0709 H   0  0  0  0  0  0  0  0  0  0  0  0
   -3.9258   -5.9789    1.8626 H   0  0  0  0  0  0  0  0  0  0  0  0
   -1.9898   -4.4524    2.4420 N   0  0  0  0  0  0  0  0  0  0  0  0
   -1.9063   -5.3575    2.8673 H   0  0  0  0  0  0  0  0  0  0  0  0
   -1.3180   -3.7256    2.6961 H   0  0  0  0  0  0  0  0  0  0  0  0
   -0.9267   -1.3416    3.5120 C   0  0  0  0  0  0  0  0  0  0  0  0
   -0.3189   -2.2450    2.9306 O   0  0  0  0  0  0  0  0  0  0  0  0
   -2.1954   -1.0291    3.1966 N   0  0  0  0  0  0  0  0  0  0  0  0
   -2.6932   -1.6270    2.5344 H   0  0  0  0  0  0  0  0  0  0  0  0
   -2.7150   -0.3461    3.7162 H   0  0  0  0  0  0  0  0  0  0  0  0
   -0.3214   -0.5838    4.4551 N   0  0  0  0  0  0  0  0  0  0  0  0
   -0.8169    0.1125    4.9804 H   0  0  0  0  0  0  0  0  0  0  0  0
    0.6111   -0.8251    4.7391 H   0  0  0  0  0  0  0  0  0  0  0  0
  1  2  1  0  0  0  0
  2  3  1  0  0  0  0
  2  4  1  0  0  0  0
  2  5  1  0  0  0  0
  5  6  1  0  0  0  0
  5  7  1  0  0  0  0
  5  8  1  0  0  0  0
  8  9  1  0  0  0  0
  9 10  1  0  0  0  0
  9 11  1  0  0  0  0
  9 12  1  0  0  0  0
  8 13  1  0  0  0  0
 13 14  1  0  0  0  0
 13 15  1  0  0  0  0
 13 16  1  0  0  0  0
  8 17  1  0  0  0  0
 17 18  1  0  0  0  0
 17 19  1  0  0  0  0
 17 20  1  0  0  0  0
  1 21  1  0  0  0  0
 22 23  4  0  0  0  0
 22 24  4  0  0  0  0
 24 25  1  0  0  0  0
 24 26  1  0  0  0  0
 22 27  4  0  0  0  0
 27 28  1  0  0  0  0
 27 29  1  0  0  0  0
 30 31  2  0  0  0  0
 30 32  4  0  0  0  0
 32 33  1  0  0  0  0
 32 34  1  0  0  0  0
 30 35  4  0  0  0  0
 35 36  1  0  0  0  0
 35 37  1  0  0  0  0
 38 39  4  0  0  0  0
 38 40  4  0  0  0  0
 40 41  1  0  0  0  0
 40 42  1  0  0  0  0
 38 43  4  0  0  0  0
 43 44  1  0  0  0  0
 43 45  1  0  0  0  0
 46 47  4  0  0  0  0
 46 48  4  0  0  0  0
 48 49  1  0  0  0  0
 48 50  1  0  0  0  0
 46 51  4  0  0  0  0
 51 52  1  0  0  0  0
 51 53  1  0  0  0  0
M  CHG  1   1   1
M  END
