  53

 O         -0.1312088661       -1.6598372153       -0.2992082316
 C         -0.0962924264       -1.8884913888        1.0764000164
 H         -0.5814195136       -2.8535672658        1.2490156043
 H          0.9411302146       -1.9711952317        1.4314710033
 C         -0.7464507998       -0.7806464484        1.9201724197
 H         -0.2365859813        0.1694590655        1.7304455009
 H         -0.6189371012       -1.0471101346        2.9712401044
 N         -2.1934842360       -0.5374515464        1.6771549189
 C         -2.3945903669        0.1059933499        0.3668954132
 H         -1.8582898915        1.0531558924        0.3599666434
 H         -3.4595256871        0.2779413337        0.2252644414
 H         -2.0083014906       -0.5356697583       -0.4214061329
 C         -2.6841772448        0.3886859238        2.7125464815
 H         -2.0988410706        1.3055777450        2.6686287678
 H         -2.5878123455       -0.0608123608        3.6985894352
 H         -3.7329243397        0.6041775560        2.5155882499
 C         -2.9857300890       -1.7744094611        1.7284150212
 H         -2.7275678502       -2.4192006531        0.8922068805
 H         -4.0396458127       -1.5063425983        1.6563636034
 H         -2.8050561175       -2.2996622635        2.6644889038
 H          0.4429327651       -0.8717831003       -0.4824213935
 C          6.4164979115       -1.8844530747       -3.2314415140
 O          5.4307414188       -1.4192774850       -2.6757668677
 N          7.4002743888       -1.0991438205       -3.7333844786
 H          7.2519840785       -0.1059311659       -3.7563156646
 H          8.1429140096       -1.4753416792       -4.2940125358
 N          6.5962668212       -3.2188100753       -3.3833910006
 H          7.4562082516       -3.6011008713       -3.7320964088
 H          5.9570913822       -3.8417596539       -2.9226257654
 C          0.2389854625        3.1719481809        1.1818052279
 O         -0.5216424648        2.3101570457        1.6064962674
 N          0.0419583450        4.4915061372        1.4628529081
 H         -0.6372611652        4.7189672221        2.1676978432
 H          0.7568786200        5.1723804808        1.2790245834
 N          1.3063097971        2.8844767100        0.4106292645
 H          1.8036022331        3.6237566071       -0.0527749237
 H          1.4045591112        1.9364512609        0.0437228553
 C          2.6643075926       -0.1620922512       -1.1953529851
 O          1.6604768613        0.2881273248       -0.6214005581
 N          3.7975587843        0.5501711091       -1.3329490554
 H          3.8967706809        1.4291317128       -0.8596203761
 H          4.5989857516        0.1049100645       -1.7567247409
 N          2.6927809112       -1.3941245510       -1.7276893705
 H          3.5304466443       -1.7042361295       -2.1977998234
 H          1.8611054522       -1.9588546873       -1.7243159362
 C         -6.6522862467        0.3787740182        1.1190423262
 O         -5.4886030569        0.0522855231        1.3032725897
 N         -7.0046703305        1.6522452071        0.8171622230
 H         -6.2960803734        2.3634438694        0.8386733243
 H         -7.9640615588        1.9420391612        0.7693245732
 N         -7.6746627789       -0.5062011527        1.2037439415
 H         -8.6136865190       -0.2603438748        0.9495548581
 H         -7.4582157976       -1.4791035460        1.3257679208
