 xtb: 6.6.1 (unknown-commit)
          01102418283D

 53 48  0     0  0            999 V2000
   -0.1312   -1.6598   -0.2992 O   0  0  0  0  0  0  0  0  0  0  0  0
   -0.0963   -1.8885    1.0764 C   0  0  0  0  0  0  0  0  0  0  0  0
   -0.5814   -2.8536    1.2490 H   0  0  0  0  0  0  0  0  0  0  0  0
    0.9411   -1.9712    1.4315 H   0  0  0  0  0  0  0  0  0  0  0  0
   -0.7464   -0.7806    1.9202 C   0  0  0  0  0  0  0  0  0  0  0  0
   -0.2366    0.1695    1.7304 H   0  0  0  0  0  0  0  0  0  0  0  0
   -0.6189   -1.0471    2.9712 H   0  0  0  0  0  0  0  0  0  0  0  0
   -2.1935   -0.5374    1.6772 N   0  0  0  0  0  0  0  0  0  0  0  0
   -2.3946    0.1060    0.3669 C   0  0  0  0  0  0  0  0  0  0  0  0
   -1.8583    1.0532    0.3600 H   0  0  0  0  0  0  0  0  0  0  0  0
   -3.4595    0.2780    0.2253 H   0  0  0  0  0  0  0  0  0  0  0  0
   -2.0083   -0.5357   -0.4214 H   0  0  0  0  0  0  0  0  0  0  0  0
   -2.6842    0.3887    2.7126 C   0  0  0  0  0  0  0  0  0  0  0  0
   -2.0988    1.3056    2.6686 H   0  0  0  0  0  0  0  0  0  0  0  0
   -2.5878   -0.0608    3.6986 H   0  0  0  0  0  0  0  0  0  0  0  0
   -3.7329    0.6042    2.5156 H   0  0  0  0  0  0  0  0  0  0  0  0
   -2.9857   -1.7744    1.7284 C   0  0  0  0  0  0  0  0  0  0  0  0
   -2.7276   -2.4192    0.8922 H   0  0  0  0  0  0  0  0  0  0  0  0
   -4.0396   -1.5063    1.6564 H   0  0  0  0  0  0  0  0  0  0  0  0
   -2.8051   -2.2996    2.6645 H   0  0  0  0  0  0  0  0  0  0  0  0
    0.4429   -0.8718   -0.4824 H   0  0  0  0  0  0  0  0  0  0  0  0
    6.4165   -1.8845   -3.2315 C   0  0  0  0  0  0  0  0  0  0  0  0
    5.4307   -1.4193   -2.6758 O   0  0  0  0  0  0  0  0  0  0  0  0
    7.4003   -1.0992   -3.7334 N   0  0  0  0  0  0  0  0  0  0  0  0
    7.2520   -0.1060   -3.7563 H   0  0  0  0  0  0  0  0  0  0  0  0
    8.1429   -1.4754   -4.2940 H   0  0  0  0  0  0  0  0  0  0  0  0
    6.5962   -3.2189   -3.3834 N   0  0  0  0  0  0  0  0  0  0  0  0
    7.4562   -3.6011   -3.7321 H   0  0  0  0  0  0  0  0  0  0  0  0
    5.9571   -3.8418   -2.9226 H   0  0  0  0  0  0  0  0  0  0  0  0
    0.2390    3.1719    1.1818 C   0  0  0  0  0  0  0  0  0  0  0  0
   -0.5216    2.3102    1.6065 O   0  0  0  0  0  0  0  0  0  0  0  0
    0.0420    4.4915    1.4628 N   0  0  0  0  0  0  0  0  0  0  0  0
   -0.6372    4.7190    2.1677 H   0  0  0  0  0  0  0  0  0  0  0  0
    0.7569    5.1724    1.2790 H   0  0  0  0  0  0  0  0  0  0  0  0
    1.3063    2.8845    0.4106 N   0  0  0  0  0  0  0  0  0  0  0  0
    1.8036    3.6237   -0.0528 H   0  0  0  0  0  0  0  0  0  0  0  0
    1.4046    1.9364    0.0437 H   0  0  0  0  0  0  0  0  0  0  0  0
    2.6643   -0.1621   -1.1954 C   0  0  0  0  0  0  0  0  0  0  0  0
    1.6605    0.2881   -0.6214 O   0  0  0  0  0  0  0  0  0  0  0  0
    3.7976    0.5501   -1.3330 N   0  0  0  0  0  0  0  0  0  0  0  0
    3.8968    1.4291   -0.8596 H   0  0  0  0  0  0  0  0  0  0  0  0
    4.5990    0.1049   -1.7567 H   0  0  0  0  0  0  0  0  0  0  0  0
    2.6928   -1.3941   -1.7277 N   0  0  0  0  0  0  0  0  0  0  0  0
    3.5304   -1.7043   -2.1978 H   0  0  0  0  0  0  0  0  0  0  0  0
    1.8611   -1.9589   -1.7243 H   0  0  0  0  0  0  0  0  0  0  0  0
   -6.6523    0.3788    1.1191 C   0  0  0  0  0  0  0  0  0  0  0  0
   -5.4886    0.0523    1.3033 O   0  0  0  0  0  0  0  0  0  0  0  0
   -7.0047    1.6523    0.8172 N   0  0  0  0  0  0  0  0  0  0  0  0
   -6.2961    2.3635    0.8387 H   0  0  0  0  0  0  0  0  0  0  0  0
   -7.9640    1.9421    0.7693 H   0  0  0  0  0  0  0  0  0  0  0  0
   -7.6747   -0.5062    1.2038 N   0  0  0  0  0  0  0  0  0  0  0  0
   -8.6137   -0.2603    0.9496 H   0  0  0  0  0  0  0  0  0  0  0  0
   -7.4582   -1.4791    1.3258 H   0  0  0  0  0  0  0  0  0  0  0  0
  1  2  1  0  0  0  0
  2  3  1  0  0  0  0
  2  4  1  0  0  0  0
  2  5  1  0  0  0  0
  5  6  1  0  0  0  0
  5  7  1  0  0  0  0
  5  8  1  0  0  0  0
  8  9  1  0  0  0  0
  9 10  1  0  0  0  0
  9 11  1  0  0  0  0
  9 12  1  0  0  0  0
  8 13  1  0  0  0  0
 13 14  1  0  0  0  0
 13 15  1  0  0  0  0
 13 16  1  0  0  0  0
  8 17  1  0  0  0  0
 17 18  1  0  0  0  0
 17 19  1  0  0  0  0
 17 20  1  0  0  0  0
  1 21  1  0  0  0  0
 22 23  2  0  0  0  0
 22 24  4  0  0  0  0
 24 25  1  0  0  0  0
 24 26  1  0  0  0  0
 22 27  4  0  0  0  0
 27 28  1  0  0  0  0
 27 29  1  0  0  0  0
 30 31  2  0  0  0  0
 30 32  1  0  0  0  0
 32 33  1  0  0  0  0
 32 34  1  0  0  0  0
 30 35  4  0  0  0  0
 35 36  1  0  0  0  0
 35 37  1  0  0  0  0
 38 39  4  0  0  0  0
 38 40  4  0  0  0  0
 40 41  1  0  0  0  0
 40 42  1  0  0  0  0
 38 43  4  0  0  0  0
 43 44  1  0  0  0  0
 43 45  1  0  0  0  0
 46 47  2  0  0  0  0
 46 48  4  0  0  0  0
 48 49  1  0  0  0  0
 48 50  1  0  0  0  0
 46 51  4  0  0  0  0
 51 52  1  0  0  0  0
 51 53  1  0  0  0  0
M  CHG  1   1   1
M  END
