  53

 O          0.0913282150        0.4881697475        1.6790197798
 C          1.0578315416       -0.4690340323        1.3638413186
 H          1.8965003180       -0.4131955267        2.0763163947
 H          0.5835263286       -1.4456800441        1.4863758368
 C          1.6791730534       -0.3087623092       -0.0262782339
 H          2.5083137180       -1.0129148213       -0.1219298238
 H          2.0479929206        0.7169398838       -0.1023910042
 N          0.7807161764       -0.5437923171       -1.1905849467
 C          0.2432405071       -1.9138231482       -1.1734992592
 H          1.0641778854       -2.6136039449       -1.0288193825
 H         -0.2442918749       -2.1225562542       -2.1234710799
 H         -0.5023747750       -2.0155120031       -0.3858002133
 C          1.5990619091       -0.3736318636       -2.4026848818
 H          2.4029567051       -1.1089560930       -2.3933274467
 H          2.0225904803        0.6283337733       -2.4282040058
 H          0.9867047451       -0.5199826328       -3.2902510533
 C         -0.3292197794        0.4197667847       -1.2037344758
 H         -0.9013223105        0.3146227735       -2.1225642166
 H          0.0584034483        1.4336282326       -1.1222351808
 H         -0.9842065453        0.2346229382       -0.3553876518
 H          0.4024793010        1.3594036684        1.3531658478
 C          4.2487403042       -3.5141674062       -1.1949406984
 O          3.3243364071       -2.7123618181       -1.2120784900
 N          4.0911615442       -4.8054320273       -1.5722360974
 H          3.2114760085       -5.0879083495       -1.9654305108
 H          4.8676618852       -5.4360748737       -1.6509512427
 N          5.4951635196       -3.1699650736       -0.7931685940
 H          6.2334414204       -3.8434478725       -0.7039267218
 H          5.6483797605       -2.2468059361       -0.4294865344
 C          0.4400266022        3.8345923643        0.6407555701
 O          0.9947940303        2.7581234562        0.4173345494
 N          1.1606418156        4.9749774879        0.7808799272
 H          2.1622389015        4.9065017717        0.8000753745
 H          0.7388687501        5.8433148894        1.0542038627
 N         -0.8946908793        3.9559523205        0.7306571793
 H         -1.3210004360        4.8444583876        0.9192891121
 H         -1.5043037537        3.1565714757        0.5889845134
 C         -2.2952573271       -1.2145093432        1.8641541994
 O         -2.2750662803       -1.5073938844        0.6661156392
 N         -1.9469008984       -2.1311449493        2.8057392534
 H         -1.8776735192       -3.0928908243        2.5211168992
 H         -2.1074301334       -1.9487571611        3.7800899285
 N         -2.6728523728       -0.0031674751        2.3083341193
 H         -2.4627397834        0.2567510613        3.2557030842
 H         -2.6865971564        0.7570350857        1.6281836387
 C         -3.6380125406        1.5244328021       -0.6346506390
 O         -2.8496289020        1.9254471045        0.2236646157
 N         -4.4054927648        2.3940624474       -1.3402491519
 H         -4.4107583547        3.3588013998       -1.0614128388
 H         -5.1336876907        2.0785797360       -1.9546266225
 N         -3.7295843792        0.2267260716       -0.9695283305
 H         -4.4644952632       -0.0991917145       -1.5706589970
 H         -3.2271566881       -0.4622348789       -0.3990814391
