 xtb: 6.6.1 (unknown-commit)
          01102418313D

 53 48  0     0  0            999 V2000
    0.0913    0.4882    1.6790 O   0  0  0  0  0  0  0  0  0  0  0  0
    1.0578   -0.4690    1.3638 C   0  0  0  0  0  0  0  0  0  0  0  0
    1.8965   -0.4132    2.0763 H   0  0  0  0  0  0  0  0  0  0  0  0
    0.5835   -1.4457    1.4864 H   0  0  0  0  0  0  0  0  0  0  0  0
    1.6792   -0.3088   -0.0263 C   0  0  0  0  0  0  0  0  0  0  0  0
    2.5083   -1.0129   -0.1219 H   0  0  0  0  0  0  0  0  0  0  0  0
    2.0480    0.7169   -0.1024 H   0  0  0  0  0  0  0  0  0  0  0  0
    0.7807   -0.5438   -1.1906 N   0  0  0  0  0  0  0  0  0  0  0  0
    0.2432   -1.9138   -1.1735 C   0  0  0  0  0  0  0  0  0  0  0  0
    1.0642   -2.6136   -1.0288 H   0  0  0  0  0  0  0  0  0  0  0  0
   -0.2443   -2.1226   -2.1235 H   0  0  0  0  0  0  0  0  0  0  0  0
   -0.5024   -2.0155   -0.3858 H   0  0  0  0  0  0  0  0  0  0  0  0
    1.5991   -0.3736   -2.4027 C   0  0  0  0  0  0  0  0  0  0  0  0
    2.4029   -1.1090   -2.3933 H   0  0  0  0  0  0  0  0  0  0  0  0
    2.0226    0.6283   -2.4282 H   0  0  0  0  0  0  0  0  0  0  0  0
    0.9867   -0.5200   -3.2903 H   0  0  0  0  0  0  0  0  0  0  0  0
   -0.3292    0.4198   -1.2037 C   0  0  0  0  0  0  0  0  0  0  0  0
   -0.9013    0.3146   -2.1226 H   0  0  0  0  0  0  0  0  0  0  0  0
    0.0584    1.4336   -1.1222 H   0  0  0  0  0  0  0  0  0  0  0  0
   -0.9842    0.2346   -0.3554 H   0  0  0  0  0  0  0  0  0  0  0  0
    0.4025    1.3594    1.3532 H   0  0  0  0  0  0  0  0  0  0  0  0
    4.2487   -3.5142   -1.1949 C   0  0  0  0  0  0  0  0  0  0  0  0
    3.3243   -2.7124   -1.2121 O   0  0  0  0  0  0  0  0  0  0  0  0
    4.0911   -4.8055   -1.5722 N   0  0  0  0  0  0  0  0  0  0  0  0
    3.2114   -5.0879   -1.9654 H   0  0  0  0  0  0  0  0  0  0  0  0
    4.8676   -5.4361   -1.6510 H   0  0  0  0  0  0  0  0  0  0  0  0
    5.4951   -3.1700   -0.7932 N   0  0  0  0  0  0  0  0  0  0  0  0
    6.2334   -3.8435   -0.7039 H   0  0  0  0  0  0  0  0  0  0  0  0
    5.6484   -2.2468   -0.4295 H   0  0  0  0  0  0  0  0  0  0  0  0
    0.4400    3.8346    0.6407 C   0  0  0  0  0  0  0  0  0  0  0  0
    0.9948    2.7581    0.4173 O   0  0  0  0  0  0  0  0  0  0  0  0
    1.1607    4.9750    0.7809 N   0  0  0  0  0  0  0  0  0  0  0  0
    2.1623    4.9065    0.8001 H   0  0  0  0  0  0  0  0  0  0  0  0
    0.7389    5.8433    1.0542 H   0  0  0  0  0  0  0  0  0  0  0  0
   -0.8947    3.9560    0.7307 N   0  0  0  0  0  0  0  0  0  0  0  0
   -1.3210    4.8445    0.9193 H   0  0  0  0  0  0  0  0  0  0  0  0
   -1.5043    3.1566    0.5890 H   0  0  0  0  0  0  0  0  0  0  0  0
   -2.2953   -1.2145    1.8642 C   0  0  0  0  0  0  0  0  0  0  0  0
   -2.2751   -1.5074    0.6661 O   0  0  0  0  0  0  0  0  0  0  0  0
   -1.9469   -2.1311    2.8057 N   0  0  0  0  0  0  0  0  0  0  0  0
   -1.8777   -3.0929    2.5211 H   0  0  0  0  0  0  0  0  0  0  0  0
   -2.1074   -1.9487    3.7801 H   0  0  0  0  0  0  0  0  0  0  0  0
   -2.6728   -0.0031    2.3083 N   0  0  0  0  0  0  0  0  0  0  0  0
   -2.4627    0.2568    3.2557 H   0  0  0  0  0  0  0  0  0  0  0  0
   -2.6866    0.7571    1.6282 H   0  0  0  0  0  0  0  0  0  0  0  0
   -3.6380    1.5245   -0.6346 C   0  0  0  0  0  0  0  0  0  0  0  0
   -2.8496    1.9255    0.2237 O   0  0  0  0  0  0  0  0  0  0  0  0
   -4.4055    2.3941   -1.3402 N   0  0  0  0  0  0  0  0  0  0  0  0
   -4.4107    3.3588   -1.0614 H   0  0  0  0  0  0  0  0  0  0  0  0
   -5.1337    2.0786   -1.9546 H   0  0  0  0  0  0  0  0  0  0  0  0
   -3.7296    0.2267   -0.9695 N   0  0  0  0  0  0  0  0  0  0  0  0
   -4.4645   -0.0992   -1.5706 H   0  0  0  0  0  0  0  0  0  0  0  0
   -3.2272   -0.4622   -0.3991 H   0  0  0  0  0  0  0  0  0  0  0  0
  1  2  1  0  0  0  0
  2  3  1  0  0  0  0
  2  4  1  0  0  0  0
  2  5  1  0  0  0  0
  5  6  1  0  0  0  0
  5  7  1  0  0  0  0
  5  8  1  0  0  0  0
  8  9  1  0  0  0  0
  9 10  1  0  0  0  0
  9 11  1  0  0  0  0
  9 12  1  0  0  0  0
  8 13  1  0  0  0  0
 13 14  1  0  0  0  0
 13 15  1  0  0  0  0
 13 16  1  0  0  0  0
  8 17  1  0  0  0  0
 17 18  1  0  0  0  0
 17 19  1  0  0  0  0
 17 20  1  0  0  0  0
  1 21  1  0  0  0  0
 22 23  2  0  0  0  0
 22 24  4  0  0  0  0
 24 25  1  0  0  0  0
 24 26  1  0  0  0  0
 22 27  4  0  0  0  0
 27 28  1  0  0  0  0
 27 29  1  0  0  0  0
 30 31  4  0  0  0  0
 30 32  4  0  0  0  0
 32 33  1  0  0  0  0
 32 34  1  0  0  0  0
 30 35  4  0  0  0  0
 35 36  1  0  0  0  0
 35 37  1  0  0  0  0
 38 39  4  0  0  0  0
 38 40  1  0  0  0  0
 40 41  1  0  0  0  0
 40 42  1  0  0  0  0
 38 43  4  0  0  0  0
 43 44  1  0  0  0  0
 43 45  1  0  0  0  0
 46 47  4  0  0  0  0
 46 48  1  0  0  0  0
 48 49  1  0  0  0  0
 48 50  1  0  0  0  0
 46 51  4  0  0  0  0
 51 52  1  0  0  0  0
 51 53  1  0  0  0  0
M  CHG  1   1   1
M  END
