  53

 O         -0.9038054304        0.5421956251       -1.1501097210
 C         -2.0985155855       -0.1548612143       -1.3967529185
 H         -2.8219658834        0.6012006391       -1.7173706953
 H         -1.9752194363       -0.8752954283       -2.2077696260
 C         -2.6612817623       -0.8204102932       -0.1258904251
 H         -3.7487286629       -0.7362162655       -0.1217604221
 H         -2.2561824977       -0.2773390418        0.7342210761
 N         -2.3246367864       -2.2556855044        0.0874813963
 C         -3.0220134625       -3.1167719040       -0.8800680484
 H         -4.0911552460       -2.9159949770       -0.8621084094
 H         -2.8547485514       -4.1613273149       -0.6245828521
 H         -2.6311596814       -2.9457445381       -1.8818786115
 C         -2.7449025090       -2.6042293659        1.4563164249
 H         -3.8122867934       -2.4308636351        1.5791230930
 H         -2.1941206304       -1.9858141605        2.1646697917
 H         -2.5331119929       -3.6527122801        1.6557103825
 C         -0.8726759536       -2.4644854425       -0.0252175061
 H         -0.3654544316       -1.7667830788        0.6389581451
 H         -0.5509258966       -2.3140742577       -1.0543827150
 H         -0.6260941553       -3.4826882015        0.2675159502
 H         -0.1246409078       -0.0395453517       -1.2796402520
 C          2.4973631486       -0.6551594311       -0.8780458767
 O          1.4183147524       -0.8923372576       -1.4256566666
 N          3.6529031212       -1.1737134041       -1.3613908175
 H          3.6046390019       -1.8419995182       -2.1096668654
 H          4.5234833100       -1.0748328085       -0.8722646741
 N          2.5935870735        0.1267197719        0.2071282477
 H          3.4841761631        0.3350960843        0.6198662843
 H          1.7626161741        0.5835911098        0.5866581520
 C          1.4449571237        4.8936534675        3.1834160254
 O          1.3505062513        3.7266852421        2.8266844660
 N          0.9358366859        5.3333658788        4.3595986851
 H          0.3748502318        4.7058977206        4.9074518039
 H          0.9275190729        6.3066767346        4.6036556999
 N          2.0641032765        5.8292852733        2.4257262312
 H          2.2369241677        6.7586549597        2.7624741227
 H          2.5440933084        5.5288416484        1.5962953047
 C         -0.3782333879       -2.4353649790       -4.1713769541
 O         -1.1588516035       -2.5608982767       -3.2344854604
 N         -0.7352557856       -2.7524534500       -5.4429723595
 H         -1.6113187927       -3.2235304918       -5.5835507860
 H         -0.0599626485       -2.7915470524       -6.1845969519
 N          0.8829137234       -1.9819885057       -3.9995523415
 H          1.4323095567       -1.7068657751       -4.7940156362
 H          1.1143273809       -1.5774704388       -3.0942443990
 C         -0.1528754816        0.7149765644        2.4054796615
 O         -0.8345611148       -0.2999342473        2.2911671977
 N          0.3156276956        1.1606554685        3.5847464228
 H          0.0899396769        0.6646581602        4.4273783415
 H          0.8119194563        2.0408463392        3.6183525013
 N          0.2601542172        1.4388465496        1.3186055465
 H          0.6146684806        2.3655634511        1.5152924465
 H         -0.2773935230        1.3224817465        0.4614951518
