  53

 O         -0.7362129006       -0.6879592011       -2.7221221024
 C         -0.4560119168       -1.9986266506       -2.3329255799
 H         -1.2446133948       -2.6240332711       -2.7607920213
 H          0.5006769545       -2.3382311701       -2.7563411298
 C         -0.3466072315       -2.2112231752       -0.8143551465
 H          0.4902572902       -1.6297345094       -0.4161015735
 H         -0.1467646896       -3.2716957161       -0.6483302146
 N         -1.5378862567       -1.8307347163       -0.0094560947
 C         -1.6582429528       -0.3640829049        0.0722615750
 H         -2.5198347337       -0.1229044861        0.6916043695
 H         -1.7857250004        0.0510821460       -0.9244125325
 H         -0.7511235344        0.0327100759        0.5245635709
 C         -1.3485251007       -2.3364031334        1.3614454174
 H         -2.2001548666       -2.0240899184        1.9639666575
 H         -0.4300803766       -1.9153111003        1.7677322156
 H         -1.2855876726       -3.4224951072        1.3598671616
 C         -2.7831893488       -2.3842222856       -0.5600946986
 H         -3.5934804511       -2.1526838646        0.1308701820
 H         -2.6987726325       -3.4632718049       -0.6740058413
 H         -2.9983816307       -1.9312784449       -1.5246893802
 H          0.0176856592       -0.1115650822       -2.4402880594
 C          2.4581383102       -0.3693154482        1.2193509055
 O          1.2560714370       -0.5939663778        1.3257149451
 N          3.0788250877       -0.3040765741        0.0157732825
 H          2.4784178681       -0.1050500441       -0.7785595560
 H          3.9817562849        0.1412014033       -0.0328406644
 N          3.2516507708       -0.2076333539        2.3073514586
 H          4.2490175204       -0.1388848007        2.2168356635
 H          2.8714624822       -0.4162475379        3.2133902944
 C          2.9128634230        2.8520023881        0.4716775265
 O          3.8274008862        2.5079532509       -0.2724213497
 N          1.6163070502        2.6053882612        0.1861115521
 H          1.4107034265        1.9731187537       -0.5818868610
 H          0.9040546258        2.7468327036        0.8790808562
 N          3.1614233141        3.4935349359        1.6431136731
 H          2.4215127295        3.9355065843        2.1586311894
 H          4.0951600056        3.8378190158        1.7874539376
 C          2.0223008849        1.2389688783       -3.0464325685
 O          1.3921190108        0.7951477272       -2.0669566624
 N          1.5762709953        1.0149598279       -4.3001821590
 H          0.6979462860        0.5408576817       -4.4280016251
 H          2.0373863617        1.3992059171       -5.1042367442
 N          3.1601690035        1.9139469543       -2.8887763860
 H          3.6573805564        2.2956621470       -3.6724301593
 H          3.4885430337        2.1297560918       -1.9378672976
 C         -5.1928406068       -0.8867745358        2.5905115530
 O         -4.1996449755       -1.1136039306        1.9130357503
 N         -5.2432461712       -1.1672773030        3.9142775767
 H         -4.4134136329       -1.5018610473        4.3695890163
 H         -6.0272578991       -0.9115606222        4.4856113424
 N         -6.3142610873       -0.3383214888        2.0654472421
 H         -7.1570955930       -0.2309132865        2.5989523554
 H         -6.3573261685       -0.1827317338        1.0745098977
