  53

 O         -0.8984505382        0.5307676964       -1.1673826331
 C         -2.0923370388       -0.1711483302       -1.4045004698
 H         -2.8177609407        0.5800723091       -1.7319650245
 H         -1.9689356307       -0.8999317419       -2.2079701230
 C         -2.6522090433       -0.8240387828       -0.1259368250
 H         -3.7401307381       -0.7461951216       -0.1238190625
 H         -2.2510409891       -0.2681079773        0.7278517492
 N         -2.3073833717       -2.2546132899        0.1052904992
 C         -2.9987826623       -3.1317552301       -0.8521237380
 H         -4.0690667709       -2.9369175162       -0.8376930391
 H         -2.8258222832       -4.1720439752       -0.5834043874
 H         -2.6079756065       -2.9710400016       -1.8556851282
 C         -2.7268425589       -2.5887670754        1.4779632457
 H         -3.7957353932       -2.4222298321        1.5970133666
 H         -2.1822079551       -1.9569842254        2.1792408296
 H         -2.5072332114       -3.6329348243        1.6910766886
 C         -0.8541619507       -2.4561155467       -0.0038799850
 H         -0.3512908612       -1.7471856121        0.6515822631
 H         -0.5325078541       -2.3167475142       -1.0346485557
 H         -0.6015788047       -3.4690650824        0.3016976723
 H         -0.1183079274       -0.0503630584       -1.2933208948
 C          2.5092326665       -0.6469463135       -0.8924255526
 O          1.4286839708       -0.8983058582       -1.4307236711
 N          3.6670658501       -1.1524051160       -1.3835011278
 H          3.6214452962       -1.8225580940       -2.1302644322
 H          4.5401499260       -1.0408978793       -0.9016308572
 N          2.6036625328        0.1341162289        0.1938048062
 H          3.4958941641        0.3687176676        0.5886835235
 H          1.7721068341        0.5932661383        0.5680862349
 C          1.4161491033        4.8762533713        3.1843286418
 O          1.4651099769        3.7288515005        2.7604919580
 N          0.5079261915        5.2634290546        4.1136763931
 H         -0.2161890567        4.6185761003        4.3760308469
 H          0.3994528275        6.2249890493        4.3796808977
 N          2.2655703950        5.8381954852        2.7559574656
 H          2.2983773698        6.7480719327        3.1780218014
 H          3.0178360185        5.5699352975        2.1469380591
 C         -0.3695747516       -2.4666788890       -4.1581186192
 O         -1.1445730682       -2.5902822710       -3.2162509952
 N         -0.7315778397       -2.7937850770       -5.4257885730
 H         -1.6053691284       -3.2713281724       -5.5585419617
 H         -0.0596131152       -2.8347070258       -6.1703421548
 N          0.8896324387       -2.0047724031       -3.9959044405
 H          1.4337854804       -1.7322992233       -4.7948488696
 H          1.1235481828       -1.5939960304       -3.0940664754
 C         -0.1564955169        0.7608372400        2.3861097297
 O         -0.8399493798       -0.2546089800        2.2896381341
 N          0.2887649383        1.2428302395        3.5604346300
 H          0.1154015129        0.7316548067        4.4063477134
 H          0.8474740346        2.0860487423        3.5679383764
 N          0.2630767659        1.4606056590        1.2869478876
 H          0.6376418148        2.3832336580        1.4634489173
 H         -0.2694484724        1.3314752133        0.4285786515
