 xtb: 6.6.1 (unknown-commit)
          01102415333D

 53 48  0     0  0            999 V2000
   -1.3901   -0.1086   -2.4648 O   0  0  0  0  0  0  0  0  0  0  0  0
   -0.0222    0.0145   -2.1860 C   0  0  0  0  0  0  0  0  0  0  0  0
    0.5096   -0.3499   -3.0672 H   0  0  0  0  0  0  0  0  0  0  0  0
    0.2505    1.0681   -2.0480 H   0  0  0  0  0  0  0  0  0  0  0  0
    0.3979   -0.7227   -0.9089 C   0  0  0  0  0  0  0  0  0  0  0  0
   -0.3840   -0.5657   -0.1628 H   0  0  0  0  0  0  0  0  0  0  0  0
    1.3440   -0.3161   -0.5447 H   0  0  0  0  0  0  0  0  0  0  0  0
    0.5834   -2.1944   -1.0251 N   0  0  0  0  0  0  0  0  0  0  0  0
    0.9004   -2.6936    0.3251 C   0  0  0  0  0  0  0  0  0  0  0  0
    1.8034   -2.1989    0.6788 H   0  0  0  0  0  0  0  0  0  0  0  0
    1.0621   -3.7691    0.2951 H   0  0  0  0  0  0  0  0  0  0  0  0
    0.0684   -2.4735    0.9918 H   0  0  0  0  0  0  0  0  0  0  0  0
    1.7124   -2.5089   -1.9129 C   0  0  0  0  0  0  0  0  0  0  0  0
    1.4964   -2.2060   -2.9338 H   0  0  0  0  0  0  0  0  0  0  0  0
    1.9030   -3.5803   -1.9025 H   0  0  0  0  0  0  0  0  0  0  0  0
    2.5946   -1.9808   -1.5501 H   0  0  0  0  0  0  0  0  0  0  0  0
   -0.6523   -2.8316   -1.5018 C   0  0  0  0  0  0  0  0  0  0  0  0
   -0.9601   -2.3998   -2.4511 H   0  0  0  0  0  0  0  0  0  0  0  0
   -1.4389   -2.6559   -0.7700 H   0  0  0  0  0  0  0  0  0  0  0  0
   -0.5003   -3.9027   -1.6184 H   0  0  0  0  0  0  0  0  0  0  0  0
   -1.8715    0.4176   -1.8014 H   0  0  0  0  0  0  0  0  0  0  0  0
    4.1648    0.2393    0.1727 C   0  0  0  0  0  0  0  0  0  0  0  0
    3.3349   -0.6480   -0.0070 O   0  0  0  0  0  0  0  0  0  0  0  0
    3.8424    1.4386    0.6989 N   0  0  0  0  0  0  0  0  0  0  0  0
    2.8569    1.6900    0.7935 H   0  0  0  0  0  0  0  0  0  0  0  0
    4.5114    2.1877    0.6969 H   0  0  0  0  0  0  0  0  0  0  0  0
    5.4738    0.0566   -0.1425 N   0  0  0  0  0  0  0  0  0  0  0  0
    6.1770    0.7224    0.1220 H   0  0  0  0  0  0  0  0  0  0  0  0
    5.7777   -0.8657   -0.3993 H   0  0  0  0  0  0  0  0  0  0  0  0
   -1.8573    2.8638   -0.7851 C   0  0  0  0  0  0  0  0  0  0  0  0
   -2.1316    1.6932   -0.4747 O   0  0  0  0  0  0  0  0  0  0  0  0
   -2.7244    3.6033   -1.5099 N   0  0  0  0  0  0  0  0  0  0  0  0
   -3.5844    3.1862   -1.8177 H   0  0  0  0  0  0  0  0  0  0  0  0
   -2.5177    4.5417   -1.7982 H   0  0  0  0  0  0  0  0  0  0  0  0
   -0.7001    3.4343   -0.4354 N   0  0  0  0  0  0  0  0  0  0  0  0
   -0.5101    4.3960   -0.6508 H   0  0  0  0  0  0  0  0  0  0  0  0
   -0.0228    2.9210    0.1397 H   0  0  0  0  0  0  0  0  0  0  0  0
   -3.1930   -1.5318    1.1669 C   0  0  0  0  0  0  0  0  0  0  0  0
   -1.9705   -1.6468    1.2324 O   0  0  0  0  0  0  0  0  0  0  0  0
   -3.7905   -0.4373    0.6604 N   0  0  0  0  0  0  0  0  0  0  0  0
   -3.2333    0.3102    0.2694 H   0  0  0  0  0  0  0  0  0  0  0  0
   -4.7883   -0.3821    0.5719 H   0  0  0  0  0  0  0  0  0  0  0  0
   -4.0182   -2.5275    1.5791 N   0  0  0  0  0  0  0  0  0  0  0  0
   -5.0109   -2.3957    1.6467 H   0  0  0  0  0  0  0  0  0  0  0  0
   -3.6162   -3.3059    2.0708 H   0  0  0  0  0  0  0  0  0  0  0  0
    0.5854    1.0860    1.8425 C   0  0  0  0  0  0  0  0  0  0  0  0
    1.0944    1.9438    1.1107 O   0  0  0  0  0  0  0  0  0  0  0  0
   -0.7433    0.8797    1.8858 N   0  0  0  0  0  0  0  0  0  0  0  0
   -1.2946    1.2782    1.1283 H   0  0  0  0  0  0  0  0  0  0  0  0
   -1.1011    0.0138    2.2588 H   0  0  0  0  0  0  0  0  0  0  0  0
    1.3456    0.3051    2.6438 N   0  0  0  0  0  0  0  0  0  0  0  0
    0.9235   -0.3026    3.3218 H   0  0  0  0  0  0  0  0  0  0  0  0
    2.3273    0.5034    2.7239 H   0  0  0  0  0  0  0  0  0  0  0  0
  1  2  1  0  0  0  0
  2  3  1  0  0  0  0
  2  4  1  0  0  0  0
  2  5  1  0  0  0  0
  5  6  1  0  0  0  0
  5  7  1  0  0  0  0
  5  8  1  0  0  0  0
  8  9  1  0  0  0  0
  9 10  1  0  0  0  0
  9 11  1  0  0  0  0
  9 12  1  0  0  0  0
  8 13  1  0  0  0  0
 13 14  1  0  0  0  0
 13 15  1  0  0  0  0
 13 16  1  0  0  0  0
  8 17  1  0  0  0  0
 17 18  1  0  0  0  0
 17 19  1  0  0  0  0
 17 20  1  0  0  0  0
  1 21  1  0  0  0  0
 22 23  2  0  0  0  0
 22 24  4  0  0  0  0
 24 25  1  0  0  0  0
 24 26  1  0  0  0  0
 22 27  1  0  0  0  0
 27 28  1  0  0  0  0
 27 29  1  0  0  0  0
 30 31  4  0  0  0  0
 30 32  4  0  0  0  0
 32 33  1  0  0  0  0
 32 34  1  0  0  0  0
 30 35  4  0  0  0  0
 35 36  1  0  0  0  0
 35 37  1  0  0  0  0
 38 39  2  0  0  0  0
 38 40  4  0  0  0  0
 40 41  1  0  0  0  0
 40 42  1  0  0  0  0
 38 43  4  0  0  0  0
 43 44  1  0  0  0  0
 43 45  1  0  0  0  0
 46 47  4  0  0  0  0
 46 48  4  0  0  0  0
 48 49  1  0  0  0  0
 48 50  1  0  0  0  0
 46 51  4  0  0  0  0
 51 52  1  0  0  0  0
 51 53  1  0  0  0  0
M  CHG  1   1   1
M  END
