53
 xtb: 6.6.1 (unknown-commit)
O            0.91127813938321       -1.01480350101710       -1.71897657431084
C            0.00260767499874       -1.95462871573338       -2.20724759612324
H            0.05543499986280       -1.91730213613086       -3.29709336148191
H            0.28052683728390       -2.97817875892174       -1.89976967842709
C           -1.44391874135297       -1.75602050281603       -1.72624231742767
H           -1.49534567295685       -1.87525821989923       -0.63630739835877
H           -2.06098401343186       -2.53502407416274       -2.18676677475600
N           -2.05994782952515       -0.43596772588191       -2.02766865767072
C           -1.49451637075784        0.60796931838029       -1.15458781096038
H           -1.67181363193654        0.33144782656280       -0.11830637823608
H           -1.98653647596545        1.55005370657038       -1.38419835898076
H           -0.42557273158886        0.69069513961440       -1.33471104348233
C           -3.50251796169379       -0.52510380409561       -1.74001891949565
H           -3.63673032142828       -0.80865816302684       -0.69284294480433
H           -3.97867206814619       -1.26245544978516       -2.37984463562571
H           -3.95375602162772        0.45118788178365       -1.91606840629417
C           -1.87343518418997       -0.03934566942807       -3.43013442071703
H           -2.25065886425020       -0.82535310391605       -4.09207821105583
H           -0.82569110482287        0.13298961532786       -3.63138641963655
H           -2.43533597674053        0.87577721635994       -3.60153604547196
H            0.94027964973879       -1.10915372200664       -0.73035522440405
C            6.44621272292468        0.35333974950507        2.65008214154800
O            5.29867829871125        0.07851713684535        2.32573329270719
N            7.34672603144326        0.86407234275817        1.75995201913701
H            6.96224102809699        1.31634165657144        0.93367406691947
H            8.20455587997187        1.30872555803245        2.12427143856984
N            6.89982813253444        0.16587409123115        3.92198058802257
H            7.89824038167953        0.18667069515001        4.11443401598601
H            6.36687772389572       -0.49665252747453        4.49844698513297
C           -4.18584582943813        3.54833308154328       -2.80723859054433
O           -3.60779836990658        2.47587214843914       -2.70959886394091
N           -4.36652778821702        4.16905219534501       -3.99714237876278
H           -3.93563716293612        3.76605336293471       -4.82216108233902
H           -4.74569425399419        5.08895316707542       -4.07605793704477
N           -4.68858312149222        4.19650801588245       -1.72662178831430
H           -5.24512765354671        5.02574411646938       -1.82780910082521
H           -4.65499320490908        3.74326730940323       -0.84363427741085
C           -2.30924457788814       -1.81179435786695        2.19537230536092
O           -2.59990799267107       -1.30033565709164        1.11997880794978
N           -3.26125391213181       -2.36325880329232        2.99820104628571
H           -4.22315776306715       -2.18275120431282        2.77148020161129
H           -3.05498526690567       -2.61657652860471        3.95216927313319
N           -1.04119973351422       -1.87064457475270        2.65113905741796
H           -0.81758604854145       -2.44722875467837        3.44451357845297
H           -0.28232662079380       -1.62249525942750        2.01288448711838
C            2.22991367615181       -0.89445839522347        1.31164058158457
O            1.08638932222779       -1.19765975175710        0.93500312766358
N            2.55355712856336       -0.78540018022620        2.61373327088793
H            1.84257781639759       -0.83156559230284        3.30881316394106
H            3.48688445373224       -0.46970527062118        2.84609036141782
N            3.23465306322226       -0.67786330106882        0.45021236370064
H            4.13750690071584       -0.40603820714969        0.80140756927984
H            3.06747670680793       -0.74939582260734       -0.54508284490103
