  53

 O         -0.8976702773       -1.1553918145       -0.9796460010
 C         -0.9306405695        0.1481890214       -1.4819855861
 H         -1.6023351160        0.1373816941       -2.3444345152
 H         -1.3577097303        0.8382221998       -0.7406182777
 C          0.4409918499        0.7270288178       -1.8562354987
 H          1.0832051393        0.7495498026       -0.9713689879
 H          0.2816565418        1.7405827281       -2.2280660872
 N          1.1981746960       -0.0067037733       -2.9087124058
 C          1.6561059306       -1.3077201528       -2.3958887665
 H          2.2137253596       -1.8351474552       -3.1670652167
 H          0.7995943326       -1.9033358525       -2.0870099522
 H          2.3010590395       -1.1307900898       -1.5357925857
 C          2.3743654725        0.8125350865       -3.2490245310
 H          2.9590583595        0.9789808723       -2.3458102228
 H          2.0373430780        1.7621357816       -3.6602682697
 H          2.9861657809        0.2949931205       -3.9848811531
 C          0.3821405256       -0.1902451275       -4.1167582384
 H         -0.4422209585       -0.8693484328       -3.9150610394
 H          0.9944948658       -0.6115089181       -4.9118789058
 H          0.0024831992        0.7814254114       -4.4313934183
 H         -0.4183750180       -1.1303021236       -0.1111398808
 C          3.6082750560        0.2373444352        0.8373629190
 O          3.1604429261        0.4203834034       -0.2888420142
 N          2.8346564775       -0.1348649327        1.8760321542
 H          1.8704037169       -0.4169343280        1.6946285135
 H          3.2584903977       -0.4264634445        2.7384355823
 N          4.9344304491        0.3965531209        1.1054285553
 H          5.2794224250        0.4113063976        2.0480744259
 H          5.5085721079        0.8157775148        0.3955876576
 C         -0.0760490672        4.0932644249       -4.4580201167
 O          0.2064422784        2.9529040161       -4.1191451559
 N         -0.7521247973        4.3628014373       -5.6000958398
 H         -1.1020322494        3.5958028993       -6.1453154734
 H         -1.0590043852        5.2890685689       -5.8335738452
 N          0.2632540631        5.1728282806       -3.7109144571
 H          0.1331465843        6.1107203281       -4.0431670240
 H          0.8528089843        5.0341240403       -2.9098277545
 C         -3.8145046704       -2.7241187148        5.3540932824
 O         -2.9705015132       -2.3072883886        4.5728497702
 N         -3.9969024648       -2.1751822196        6.5797696042
 H         -3.5083905808       -1.3245721200        6.7965052600
 H         -4.7704937380       -2.4335487768        7.1647911578
 N         -4.6288863826       -3.7641975748        5.0501187428
 H         -5.2282356816       -4.1833753354        5.7375540701
 H         -4.4425711997       -4.2846939706        4.2112847266
 C         -0.6579972647       -1.3446816146        2.2965392506
 O          0.1721568219       -0.9609921586        1.4578774416
 N         -0.4479208630       -1.2367799529        3.6210926665
 H          0.3687880727       -0.7671701402        3.9649988056
 H         -1.1780015441       -1.5259571006        4.2549263950
 N         -1.8240167431       -1.9086518378        1.9454866324
 H         -2.4708956329       -2.1862070623        2.6690717276
 H         -2.0485056645       -2.0269949819        0.9727456336
