 xtb: 6.6.1 (unknown-commit)
          01102415373D

 53 48  0     0  0            999 V2000
   -0.3920   -2.4100    1.1715 O   0  0  0  0  0  0  0  0  0  0  0  0
    0.3583   -2.5570   -0.0037 C   0  0  0  0  0  0  0  0  0  0  0  0
    1.3058   -2.0381    0.1559 H   0  0  0  0  0  0  0  0  0  0  0  0
    0.5830   -3.6214   -0.1745 H   0  0  0  0  0  0  0  0  0  0  0  0
   -0.3748   -2.0735   -1.2632 C   0  0  0  0  0  0  0  0  0  0  0  0
   -1.3686   -2.5306   -1.2568 H   0  0  0  0  0  0  0  0  0  0  0  0
    0.1740   -2.4219   -2.1400 H   0  0  0  0  0  0  0  0  0  0  0  0
   -0.5635   -0.6049   -1.3958 N   0  0  0  0  0  0  0  0  0  0  0  0
   -1.4278   -0.3378   -2.5580 C   0  0  0  0  0  0  0  0  0  0  0  0
   -0.9810   -0.7408   -3.4648 H   0  0  0  0  0  0  0  0  0  0  0  0
   -1.5438    0.7413   -2.6583 H   0  0  0  0  0  0  0  0  0  0  0  0
   -2.4043   -0.7938   -2.4087 H   0  0  0  0  0  0  0  0  0  0  0  0
    0.7195    0.0829   -1.6068 C   0  0  0  0  0  0  0  0  0  0  0  0
    1.4083   -0.1240   -0.7907 H   0  0  0  0  0  0  0  0  0  0  0  0
    0.5294    1.1544   -1.6550 H   0  0  0  0  0  0  0  0  0  0  0  0
    1.1692   -0.2480   -2.5407 H   0  0  0  0  0  0  0  0  0  0  0  0
   -1.2226   -0.0455   -0.2046 C   0  0  0  0  0  0  0  0  0  0  0  0
   -0.5809   -0.1708    0.6631 H   0  0  0  0  0  0  0  0  0  0  0  0
   -2.1636   -0.5641   -0.0308 H   0  0  0  0  0  0  0  0  0  0  0  0
   -1.4027    1.0143   -0.3795 H   0  0  0  0  0  0  0  0  0  0  0  0
   -1.3251   -2.6312    0.9516 H   0  0  0  0  0  0  0  0  0  0  0  0
    4.0474    0.0479    0.1070 C   0  0  0  0  0  0  0  0  0  0  0  0
    3.0626   -0.6373    0.3972 O   0  0  0  0  0  0  0  0  0  0  0  0
    3.9793    1.3855    0.0260 N   0  0  0  0  0  0  0  0  0  0  0  0
    3.1057    1.8523    0.2761 H   0  0  0  0  0  0  0  0  0  0  0  0
    4.7894    1.9428   -0.1721 H   0  0  0  0  0  0  0  0  0  0  0  0
    5.2348   -0.5303   -0.1914 N   0  0  0  0  0  0  0  0  0  0  0  0
    6.0671    0.0086   -0.3446 H   0  0  0  0  0  0  0  0  0  0  0  0
    5.3229   -1.5236   -0.0737 H   0  0  0  0  0  0  0  0  0  0  0  0
   -0.7790    3.8455   -1.6221 C   0  0  0  0  0  0  0  0  0  0  0  0
   -1.0334    2.6515   -1.7417 O   0  0  0  0  0  0  0  0  0  0  0  0
   -1.3300    4.7732   -2.4488 N   0  0  0  0  0  0  0  0  0  0  0  0
   -2.0568    4.4763   -3.0753 H   0  0  0  0  0  0  0  0  0  0  0  0
   -1.2400    5.7569   -2.2707 H   0  0  0  0  0  0  0  0  0  0  0  0
    0.0502    4.3179   -0.6681 N   0  0  0  0  0  0  0  0  0  0  0  0
    0.3631    5.2717   -0.6992 H   0  0  0  0  0  0  0  0  0  0  0  0
    0.6149    3.6560   -0.1369 H   0  0  0  0  0  0  0  0  0  0  0  0
   -3.5046   -3.8113    1.0376 C   0  0  0  0  0  0  0  0  0  0  0  0
   -2.9321   -2.9699    0.3481 O   0  0  0  0  0  0  0  0  0  0  0  0
   -2.9168   -4.3677    2.1190 N   0  0  0  0  0  0  0  0  0  0  0  0
   -1.9866   -4.0814    2.3731 H   0  0  0  0  0  0  0  0  0  0  0  0
   -3.3794   -5.0537    2.6862 H   0  0  0  0  0  0  0  0  0  0  0  0
   -4.7528   -4.2369    0.7504 N   0  0  0  0  0  0  0  0  0  0  0  0
   -5.2352   -4.9133    1.3126 H   0  0  0  0  0  0  0  0  0  0  0  0
   -5.2301   -3.8396   -0.0385 H   0  0  0  0  0  0  0  0  0  0  0  0
    0.9843    1.8812    1.8220 C   0  0  0  0  0  0  0  0  0  0  0  0
    1.5320    2.4730    0.8874 O   0  0  0  0  0  0  0  0  0  0  0  0
    1.2385    0.5939    2.0973 N   0  0  0  0  0  0  0  0  0  0  0  0
    1.9331    0.0909    1.5382 H   0  0  0  0  0  0  0  0  0  0  0  0
    0.8303    0.1272    2.8862 H   0  0  0  0  0  0  0  0  0  0  0  0
    0.0441    2.4966    2.5819 N   0  0  0  0  0  0  0  0  0  0  0  0
   -0.3257    2.0697    3.4112 H   0  0  0  0  0  0  0  0  0  0  0  0
   -0.1134    3.4790    2.4447 H   0  0  0  0  0  0  0  0  0  0  0  0
  1  2  1  0  0  0  0
  2  3  1  0  0  0  0
  2  4  1  0  0  0  0
  2  5  1  0  0  0  0
  5  6  1  0  0  0  0
  5  7  1  0  0  0  0
  5  8  1  0  0  0  0
  8  9  1  0  0  0  0
  9 10  1  0  0  0  0
  9 11  1  0  0  0  0
  9 12  1  0  0  0  0
  8 13  1  0  0  0  0
 13 14  1  0  0  0  0
 13 15  1  0  0  0  0
 13 16  1  0  0  0  0
  8 17  1  0  0  0  0
 17 18  1  0  0  0  0
 17 19  1  0  0  0  0
 17 20  1  0  0  0  0
  1 21  1  0  0  0  0
 22 23  4  0  0  0  0
 22 24  4  0  0  0  0
 24 25  1  0  0  0  0
 24 26  1  0  0  0  0
 22 27  4  0  0  0  0
 27 28  1  0  0  0  0
 27 29  1  0  0  0  0
 30 31  2  0  0  0  0
 30 32  1  0  0  0  0
 32 33  1  0  0  0  0
 32 34  1  0  0  0  0
 30 35  4  0  0  0  0
 35 36  1  0  0  0  0
 35 37  1  0  0  0  0
 38 39  2  0  0  0  0
 38 40  4  0  0  0  0
 40 41  1  0  0  0  0
 40 42  1  0  0  0  0
 38 43  4  0  0  0  0
 43 44  1  0  0  0  0
 43 45  1  0  0  0  0
 46 47  4  0  0  0  0
 46 48  4  0  0  0  0
 48 49  1  0  0  0  0
 48 50  1  0  0  0  0
 46 51  4  0  0  0  0
 51 52  1  0  0  0  0
 51 53  1  0  0  0  0
M  CHG  1   1   1
M  END
