  53

 O         -3.4831043274       -0.8731000644        2.4641751595
 C         -2.5564278753       -1.6732682011        3.1294654564
 H         -2.6347148165       -1.4243793598        4.1913733614
 H         -2.8091790895       -2.7391663509        3.0217892906
 C         -1.1173155867       -1.5313648063        2.6080892003
 H         -1.1417424298       -1.7568094584        1.5379209081
 H         -0.4892919544       -2.2605389919        3.1227716090
 N         -0.4876197911       -0.1906366251        2.7513575752
 C         -1.2210699038        0.8197810068        1.9676670602
 H         -1.3414434520        0.4632730735        0.9461403467
 H         -0.6607386485        1.7517989475        1.9776855964
 H         -2.2118998290        0.9711457426        2.3895182798
 C          0.8888544418       -0.2725020622        2.2302070683
 H          0.8795817125       -0.5179841326        1.1666419299
 H          1.4567103024       -1.0256611858        2.7716690503
 H          1.3707873756        0.6972720248        2.3442146591
 C         -0.4364134216        0.2380253995        4.1563720099
 H          0.0786766798       -0.5069165058        4.7607167425
 H         -1.4416508189        0.3822739639        4.5450600748
 H          0.1008278209        1.1826534490        4.2190613874
 H         -3.3832139125       -1.0245625398        1.5048344152
 C          1.5364866434       -2.0817332705       -3.9318194797
 O          0.4606477612       -1.5113353432       -4.1117094794
 N          2.2731458217       -1.8883304975       -2.8202667727
 H          1.8959899287       -1.3158451872       -2.0688684801
 H          3.1109677654       -2.4132677518       -2.6508241717
 N          2.0313473229       -2.9497710565       -4.8455157895
 H          2.9504625573       -3.3443577464       -4.7659072342
 H          1.5498363741       -3.0367811630       -5.7228407802
 C          2.1519235300        3.6915264672        1.9178327901
 O          1.3097749173        2.7981088159        1.9595603359
 N          2.9396273267        3.8815180402        0.8361675850
 H          2.8848898222        3.2244329475        0.0770210547
 H          3.6826883827        4.5558769434        0.8316408831
 N          2.3508418496        4.5358899173        2.9542787886
 H          2.9699313602        5.3230102578        2.8863643008
 H          1.7167846439        4.5029574973        3.7325845052
 C          0.6626209133        0.8852951792       -1.4436557528
 O          1.0186338128       -0.1594473287       -0.8803632257
 N          0.2191231722        0.8887470642       -2.7077043128
 H          0.2490183219        0.0250300123       -3.2589481312
 H         -0.0173347662        1.7443815173       -3.1757807902
 N          0.7280138785        2.0826060182       -0.8101662683
 H          0.2761080735        2.8820271352       -1.2181483202
 H          0.8963286487        2.1144676871        0.1903850971
 C         -2.3147369492       -1.6799408921       -1.2238209359
 O         -2.4390450806       -1.2518240114       -0.0756905630
 N         -3.3867485325       -1.9480380302       -2.0040812168
 H         -4.3064600954       -1.8881889586       -1.6051917546
 H         -3.2811705079       -2.3731876124       -2.9068962990
 N         -1.1018806687       -1.9416667017       -1.7533075620
 H         -0.9870582354       -2.0478866271       -2.7511098411
 H         -0.3042451750       -1.5222046797       -1.2877365492
