 xtb: 6.6.1 (unknown-commit)
          01102415333D

 53 48  0     0  0            999 V2000
   -1.2497   -1.3508   -2.4713 O   0  0  0  0  0  0  0  0  0  0  0  0
    0.0339   -0.8527   -2.2159 C   0  0  0  0  0  0  0  0  0  0  0  0
    0.7112   -1.3748   -2.8948 H   0  0  0  0  0  0  0  0  0  0  0  0
    0.0894    0.2166   -2.4580 H   0  0  0  0  0  0  0  0  0  0  0  0
    0.4831   -0.9827   -0.7568 C   0  0  0  0  0  0  0  0  0  0  0  0
   -0.2710   -0.5252   -0.1122 H   0  0  0  0  0  0  0  0  0  0  0  0
    1.4291   -0.4490   -0.6422 H   0  0  0  0  0  0  0  0  0  0  0  0
    0.7066   -2.3679   -0.2586 N   0  0  0  0  0  0  0  0  0  0  0  0
   -0.5651   -3.1042   -0.2099 C   0  0  0  0  0  0  0  0  0  0  0  0
   -1.2329   -2.6091    0.4926 H   0  0  0  0  0  0  0  0  0  0  0  0
   -0.3923   -4.1277    0.1175 H   0  0  0  0  0  0  0  0  0  0  0  0
   -1.0274   -3.1060   -1.1958 H   0  0  0  0  0  0  0  0  0  0  0  0
    1.2573   -2.2592    1.1034 C   0  0  0  0  0  0  0  0  0  0  0  0
    0.5605   -1.6997    1.7255 H   0  0  0  0  0  0  0  0  0  0  0  0
    2.2107   -1.7358    1.0563 H   0  0  0  0  0  0  0  0  0  0  0  0
    1.4045   -3.2507    1.5262 H   0  0  0  0  0  0  0  0  0  0  0  0
    1.6837   -3.0764   -1.0981 C   0  0  0  0  0  0  0  0  0  0  0  0
    2.5787   -2.4614   -1.1841 H   0  0  0  0  0  0  0  0  0  0  0  0
    1.2693   -3.2736   -2.0832 H   0  0  0  0  0  0  0  0  0  0  0  0
    1.9449   -4.0263   -0.6354 H   0  0  0  0  0  0  0  0  0  0  0  0
   -1.8833   -0.8072   -1.9628 H   0  0  0  0  0  0  0  0  0  0  0  0
    4.1351    0.4530   -0.0736 C   0  0  0  0  0  0  0  0  0  0  0  0
    3.4871   -0.5676   -0.2720 O   0  0  0  0  0  0  0  0  0  0  0  0
    5.4762    0.4119    0.1448 N   0  0  0  0  0  0  0  0  0  0  0  0
    5.9480   -0.4620   -0.0083 H   0  0  0  0  0  0  0  0  0  0  0  0
    6.0348    1.2461    0.1450 H   0  0  0  0  0  0  0  0  0  0  0  0
    3.5701    1.6810   -0.0542 N   0  0  0  0  0  0  0  0  0  0  0  0
    4.0970    2.4690    0.2778 H   0  0  0  0  0  0  0  0  0  0  0  0
    2.5551    1.7566   -0.0558 H   0  0  0  0  0  0  0  0  0  0  0  0
   -1.0028    0.4530    2.8113 C   0  0  0  0  0  0  0  0  0  0  0  0
   -1.1506   -0.5600    2.1238 O   0  0  0  0  0  0  0  0  0  0  0  0
   -0.2695    1.4991    2.4060 N   0  0  0  0  0  0  0  0  0  0  0  0
    0.0847    1.5448    1.4512 H   0  0  0  0  0  0  0  0  0  0  0  0
   -0.2210    2.3347    2.9601 H   0  0  0  0  0  0  0  0  0  0  0  0
   -1.5966    0.5609    4.0293 N   0  0  0  0  0  0  0  0  0  0  0  0
   -1.3670    1.3097    4.6576 H   0  0  0  0  0  0  0  0  0  0  0  0
   -2.0179   -0.2612    4.4251 H   0  0  0  0  0  0  0  0  0  0  0  0
   -3.7636   -0.2434   -0.2380 C   0  0  0  0  0  0  0  0  0  0  0  0
   -2.7765    0.2063   -0.8232 O   0  0  0  0  0  0  0  0  0  0  0  0
   -5.0064   -0.1177   -0.7599 N   0  0  0  0  0  0  0  0  0  0  0  0
   -5.0969    0.2459   -1.6921 H   0  0  0  0  0  0  0  0  0  0  0  0
   -5.8002   -0.5813   -0.3568 H   0  0  0  0  0  0  0  0  0  0  0  0
   -3.6558   -0.8944    0.9340 N   0  0  0  0  0  0  0  0  0  0  0  0
   -4.4718   -1.1462    1.4619 H   0  0  0  0  0  0  0  0  0  0  0  0
   -2.7583   -0.8526    1.4159 H   0  0  0  0  0  0  0  0  0  0  0  0
    0.1308    2.6697   -1.0405 C   0  0  0  0  0  0  0  0  0  0  0  0
    0.7263    2.0315   -0.1696 O   0  0  0  0  0  0  0  0  0  0  0  0
    0.7783    3.5944   -1.7905 N   0  0  0  0  0  0  0  0  0  0  0  0
    1.7348    3.8109   -1.5751 H   0  0  0  0  0  0  0  0  0  0  0  0
    0.2977    4.1755   -2.4526 H   0  0  0  0  0  0  0  0  0  0  0  0
   -1.1788    2.5060   -1.2934 N   0  0  0  0  0  0  0  0  0  0  0  0
   -1.6057    2.9746   -2.0727 H   0  0  0  0  0  0  0  0  0  0  0  0
   -1.6793    1.7068   -0.9176 H   0  0  0  0  0  0  0  0  0  0  0  0
  1  2  1  0  0  0  0
  2  3  1  0  0  0  0
  2  4  1  0  0  0  0
  2  5  1  0  0  0  0
  5  6  1  0  0  0  0
  5  7  1  0  0  0  0
  5  8  1  0  0  0  0
  8  9  1  0  0  0  0
  9 10  1  0  0  0  0
  9 11  1  0  0  0  0
  9 12  1  0  0  0  0
  8 13  1  0  0  0  0
 13 14  1  0  0  0  0
 13 15  1  0  0  0  0
 13 16  1  0  0  0  0
  8 17  1  0  0  0  0
 17 18  1  0  0  0  0
 17 19  1  0  0  0  0
 17 20  1  0  0  0  0
  1 21  1  0  0  0  0
 22 23  2  0  0  0  0
 22 24  1  0  0  0  0
 24 25  1  0  0  0  0
 24 26  1  0  0  0  0
 22 27  4  0  0  0  0
 27 28  1  0  0  0  0
 27 29  1  0  0  0  0
 30 31  4  0  0  0  0
 30 32  4  0  0  0  0
 32 33  1  0  0  0  0
 32 34  1  0  0  0  0
 30 35  1  0  0  0  0
 35 36  1  0  0  0  0
 35 37  1  0  0  0  0
 38 39  4  0  0  0  0
 38 40  4  0  0  0  0
 40 41  1  0  0  0  0
 40 42  1  0  0  0  0
 38 43  4  0  0  0  0
 43 44  1  0  0  0  0
 43 45  1  0  0  0  0
 46 47  4  0  0  0  0
 46 48  4  0  0  0  0
 48 49  1  0  0  0  0
 48 50  1  0  0  0  0
 46 51  4  0  0  0  0
 51 52  1  0  0  0  0
 51 53  1  0  0  0  0
M  CHG  1   1   1
M  END
