 xtb: 6.6.1 (unknown-commit)
          01102418323D

 53 48  0     0  0            999 V2000
    1.7571   -0.9896   -1.3490 O   0  0  0  0  0  0  0  0  0  0  0  0
    0.3853   -0.7483   -1.1836 C   0  0  0  0  0  0  0  0  0  0  0  0
    0.2602    0.3288   -1.0677 H   0  0  0  0  0  0  0  0  0  0  0  0
   -0.1612   -1.0534   -2.0897 H   0  0  0  0  0  0  0  0  0  0  0  0
   -0.2523   -1.5211   -0.0285 C   0  0  0  0  0  0  0  0  0  0  0  0
   -0.0178   -2.5799   -0.1637 H   0  0  0  0  0  0  0  0  0  0  0  0
   -1.3336   -1.3719   -0.0676 H   0  0  0  0  0  0  0  0  0  0  0  0
    0.1800   -1.1429    1.3456 N   0  0  0  0  0  0  0  0  0  0  0  0
   -0.1567    0.2599    1.6345 C   0  0  0  0  0  0  0  0  0  0  0  0
   -1.2060    0.4263    1.3937 H   0  0  0  0  0  0  0  0  0  0  0  0
    0.4737    0.9322    1.0555 H   0  0  0  0  0  0  0  0  0  0  0  0
    0.0095    0.4634    2.6900 H   0  0  0  0  0  0  0  0  0  0  0  0
    1.6249   -1.3493    1.5243 C   0  0  0  0  0  0  0  0  0  0  0  0
    1.8938   -1.1923    2.5669 H   0  0  0  0  0  0  0  0  0  0  0  0
    2.1723   -0.6399    0.9065 H   0  0  0  0  0  0  0  0  0  0  0  0
    1.8972   -2.3599    1.2231 H   0  0  0  0  0  0  0  0  0  0  0  0
   -0.5699   -2.0010    2.2779 C   0  0  0  0  0  0  0  0  0  0  0  0
   -0.3575   -3.0493    2.0772 H   0  0  0  0  0  0  0  0  0  0  0  0
   -1.6350   -1.8123    2.1471 H   0  0  0  0  0  0  0  0  0  0  0  0
   -0.2882   -1.7738    3.3042 H   0  0  0  0  0  0  0  0  0  0  0  0
    1.8996   -1.9512   -1.1943 H   0  0  0  0  0  0  0  0  0  0  0  0
    2.7893   -4.2473   -1.5177 C   0  0  0  0  0  0  0  0  0  0  0  0
    2.0327   -3.6435   -0.7604 O   0  0  0  0  0  0  0  0  0  0  0  0
    3.4363   -3.6237   -2.5268 N   0  0  0  0  0  0  0  0  0  0  0  0
    3.3312   -2.6290   -2.6320 H   0  0  0  0  0  0  0  0  0  0  0  0
    4.0902   -4.1020   -3.1184 H   0  0  0  0  0  0  0  0  0  0  0  0
    3.0189   -5.5712   -1.3891 N   0  0  0  0  0  0  0  0  0  0  0  0
    3.6019   -6.0811   -2.0267 H   0  0  0  0  0  0  0  0  0  0  0  0
    2.5244   -6.0809   -0.6793 H   0  0  0  0  0  0  0  0  0  0  0  0
   -1.3912    3.5457    1.1421 C   0  0  0  0  0  0  0  0  0  0  0  0
   -1.5810    2.8666    0.1275 O   0  0  0  0  0  0  0  0  0  0  0  0
   -0.1682    3.7322    1.6548 N   0  0  0  0  0  0  0  0  0  0  0  0
    0.6312    3.2578    1.2266 H   0  0  0  0  0  0  0  0  0  0  0  0
   -0.0221    4.2861    2.4783 H   0  0  0  0  0  0  0  0  0  0  0  0
   -2.4293    4.1136    1.8045 N   0  0  0  0  0  0  0  0  0  0  0  0
   -2.2842    4.7542    2.5632 H   0  0  0  0  0  0  0  0  0  0  0  0
   -3.3445    4.0668    1.3938 H   0  0  0  0  0  0  0  0  0  0  0  0
    1.8275    2.5129   -0.8861 C   0  0  0  0  0  0  0  0  0  0  0  0
    1.8368    2.3172    0.3301 O   0  0  0  0  0  0  0  0  0  0  0  0
    0.6778    2.6938   -1.5652 N   0  0  0  0  0  0  0  0  0  0  0  0
   -0.1912    2.7777   -1.0351 H   0  0  0  0  0  0  0  0  0  0  0  0
    0.6814    2.9668   -2.5306 H   0  0  0  0  0  0  0  0  0  0  0  0
    2.9753    2.5518   -1.6029 N   0  0  0  0  0  0  0  0  0  0  0  0
    2.9677    2.5457   -2.6063 H   0  0  0  0  0  0  0  0  0  0  0  0
    3.8263    2.2940   -1.1353 H   0  0  0  0  0  0  0  0  0  0  0  0
   -3.9881    0.0211    0.3327 C   0  0  0  0  0  0  0  0  0  0  0  0
   -3.0351   -0.5432    0.8598 O   0  0  0  0  0  0  0  0  0  0  0  0
   -3.9491    1.3131   -0.0519 N   0  0  0  0  0  0  0  0  0  0  0  0
   -3.0625    1.8158   -0.0362 H   0  0  0  0  0  0  0  0  0  0  0  0
   -4.6877    1.6928   -0.6166 H   0  0  0  0  0  0  0  0  0  0  0  0
   -5.1560   -0.6362    0.0963 N   0  0  0  0  0  0  0  0  0  0  0  0
   -5.9865   -0.1441   -0.1796 H   0  0  0  0  0  0  0  0  0  0  0  0
   -5.2720   -1.5461    0.5064 H   0  0  0  0  0  0  0  0  0  0  0  0
  1  2  1  0  0  0  0
  2  3  1  0  0  0  0
  2  4  1  0  0  0  0
  2  5  1  0  0  0  0
  5  6  1  0  0  0  0
  5  7  1  0  0  0  0
  5  8  1  0  0  0  0
  8  9  1  0  0  0  0
  9 10  1  0  0  0  0
  9 11  1  0  0  0  0
  9 12  1  0  0  0  0
  8 13  1  0  0  0  0
 13 14  1  0  0  0  0
 13 15  1  0  0  0  0
 13 16  1  0  0  0  0
  8 17  1  0  0  0  0
 17 18  1  0  0  0  0
 17 19  1  0  0  0  0
 17 20  1  0  0  0  0
  1 21  1  0  0  0  0
 22 23  2  0  0  0  0
 22 24  4  0  0  0  0
 24 25  1  0  0  0  0
 24 26  1  0  0  0  0
 22 27  4  0  0  0  0
 27 28  1  0  0  0  0
 27 29  1  0  0  0  0
 30 31  4  0  0  0  0
 30 32  4  0  0  0  0
 32 33  1  0  0  0  0
 32 34  1  0  0  0  0
 30 35  4  0  0  0  0
 35 36  1  0  0  0  0
 35 37  1  0  0  0  0
 38 39  4  0  0  0  0
 38 40  4  0  0  0  0
 40 41  1  0  0  0  0
 40 42  1  0  0  0  0
 38 43  4  0  0  0  0
 43 44  1  0  0  0  0
 43 45  1  0  0  0  0
 46 47  2  0  0  0  0
 46 48  4  0  0  0  0
 48 49  1  0  0  0  0
 48 50  1  0  0  0  0
 46 51  1  0  0  0  0
 51 52  1  0  0  0  0
 51 53  1  0  0  0  0
M  CHG  1   1   1
M  END
