  53

 O         -2.6347679097        1.3472508747        2.3176867327
 C         -2.8643157157        0.2382736706        1.4940541478
 H         -2.0349273251       -0.4726558879        1.5245513458
 H         -3.7609333904       -0.2708014736        1.8688015620
 C         -3.1805346324        0.6747545948        0.0510819345
 H         -3.7757201044        1.5876531266        0.1306394063
 H         -3.7808598191       -0.0949374890       -0.4367741081
 N         -2.0114034787        0.9576223446       -0.8224817684
 C         -2.4899198833        1.6140103985       -2.0524100447
 H         -3.2219808943        0.9860842217       -2.5561843899
 H         -1.6347888896        1.7773671678       -2.7102421036
 H         -2.9480890475        2.5716055796       -1.8141395425
 C         -1.3244043172       -0.2874136869       -1.2011320718
 H         -0.9811587565       -0.8236497722       -0.3188631835
 H         -0.4658170894       -0.0342269194       -1.8230585718
 H         -1.9982942278       -0.9285963045       -1.7656613080
 C         -1.0440031648        1.8541211478       -0.1676190497
 H         -0.2725910812        2.1091262339       -0.8929073216
 H         -0.5863568296        1.3646794654        0.6888464507
 H         -1.5468441989        2.7572602695        0.1711926092
 H         -1.6911460614        1.3816706020        2.5614602789
 C          2.2060900638        0.0970374685       -0.4331522097
 O          2.0979102425       -0.7618857174       -1.3190371800
 N          2.8680199171        1.2538128799       -0.6526843983
 H          3.2994581005        1.4104336628       -1.5456293906
 H          2.9887285543        1.9363393571        0.0721970847
 N          1.6843433710       -0.0805461469        0.7881101450
 H          1.6338848970        0.6612821479        1.4660070774
 H          1.0618711721       -0.8709404941        0.9398476275
 C          1.1836502891        1.3953181816       -3.9393123876
 O          0.3840297265        1.6144230013       -3.0337925033
 N          1.0825303501        2.0204034802       -5.1420767497
 H          0.4323044084        2.7813281194       -5.2289317404
 H          1.8113943100        1.9531084483       -5.8292652662
 N          2.2081858466        0.5293086013       -3.8001703841
 H          2.7448646317        0.2407094637       -4.5984218377
 H          2.2115731419       -0.0725155939       -2.9741735892
 C          0.2383806955       -3.2471540490        0.5444754556
 O         -0.1542948262       -2.2141230077        1.1070572882
 N         -0.1154498976       -4.4647649531        1.0164044268
 H         -0.7652549040       -4.5209263048        1.7800348935
 H          0.1310459348       -5.3120321971        0.5385383009
 N          1.0084494241       -3.2091669414       -0.5480103380
 H          1.3737801553       -4.0542107157       -0.9482952696
 H          1.3995834971       -2.3159219907       -0.8714808091
 C          0.1335916213        0.2064010851        3.8488725461
 O         -0.0045025484        0.9280731663        2.8582027533
 N          0.0553825728       -1.1341633866        3.7692945528
 H         -0.0566147860       -1.5705573606        2.8602821059
 H          0.2377939636       -1.7164978199        4.5656592847
 N          0.3811731120        0.7313271565        5.0705094825
 H          0.3864867381        0.1690816530        5.9018122450
 H          0.3401461640        1.7297470856        5.1753151875
