 xtb: 6.6.1 (unknown-commit)
          01102415363D

 53 48  0     0  0            999 V2000
   -2.6348    1.3473    2.3177 O   0  0  0  0  0  0  0  0  0  0  0  0
   -2.8643    0.2383    1.4941 C   0  0  0  0  0  0  0  0  0  0  0  0
   -2.0349   -0.4726    1.5246 H   0  0  0  0  0  0  0  0  0  0  0  0
   -3.7609   -0.2708    1.8688 H   0  0  0  0  0  0  0  0  0  0  0  0
   -3.1805    0.6748    0.0511 C   0  0  0  0  0  0  0  0  0  0  0  0
   -3.7757    1.5877    0.1306 H   0  0  0  0  0  0  0  0  0  0  0  0
   -3.7809   -0.0949   -0.4368 H   0  0  0  0  0  0  0  0  0  0  0  0
   -2.0114    0.9576   -0.8225 N   0  0  0  0  0  0  0  0  0  0  0  0
   -2.4899    1.6140   -2.0524 C   0  0  0  0  0  0  0  0  0  0  0  0
   -3.2220    0.9861   -2.5562 H   0  0  0  0  0  0  0  0  0  0  0  0
   -1.6348    1.7774   -2.7102 H   0  0  0  0  0  0  0  0  0  0  0  0
   -2.9481    2.5716   -1.8141 H   0  0  0  0  0  0  0  0  0  0  0  0
   -1.3244   -0.2874   -1.2011 C   0  0  0  0  0  0  0  0  0  0  0  0
   -0.9812   -0.8236   -0.3189 H   0  0  0  0  0  0  0  0  0  0  0  0
   -0.4658   -0.0342   -1.8231 H   0  0  0  0  0  0  0  0  0  0  0  0
   -1.9983   -0.9286   -1.7657 H   0  0  0  0  0  0  0  0  0  0  0  0
   -1.0440    1.8541   -0.1676 C   0  0  0  0  0  0  0  0  0  0  0  0
   -0.2726    2.1091   -0.8929 H   0  0  0  0  0  0  0  0  0  0  0  0
   -0.5863    1.3647    0.6888 H   0  0  0  0  0  0  0  0  0  0  0  0
   -1.5468    2.7573    0.1712 H   0  0  0  0  0  0  0  0  0  0  0  0
   -1.6911    1.3817    2.5615 H   0  0  0  0  0  0  0  0  0  0  0  0
    2.2061    0.0970   -0.4332 C   0  0  0  0  0  0  0  0  0  0  0  0
    2.0979   -0.7619   -1.3190 O   0  0  0  0  0  0  0  0  0  0  0  0
    2.8680    1.2538   -0.6527 N   0  0  0  0  0  0  0  0  0  0  0  0
    3.2995    1.4104   -1.5456 H   0  0  0  0  0  0  0  0  0  0  0  0
    2.9887    1.9363    0.0722 H   0  0  0  0  0  0  0  0  0  0  0  0
    1.6843   -0.0806    0.7881 N   0  0  0  0  0  0  0  0  0  0  0  0
    1.6339    0.6613    1.4660 H   0  0  0  0  0  0  0  0  0  0  0  0
    1.0619   -0.8709    0.9398 H   0  0  0  0  0  0  0  0  0  0  0  0
    1.1836    1.3953   -3.9393 C   0  0  0  0  0  0  0  0  0  0  0  0
    0.3840    1.6144   -3.0338 O   0  0  0  0  0  0  0  0  0  0  0  0
    1.0825    2.0204   -5.1421 N   0  0  0  0  0  0  0  0  0  0  0  0
    0.4323    2.7813   -5.2289 H   0  0  0  0  0  0  0  0  0  0  0  0
    1.8114    1.9531   -5.8293 H   0  0  0  0  0  0  0  0  0  0  0  0
    2.2082    0.5293   -3.8002 N   0  0  0  0  0  0  0  0  0  0  0  0
    2.7448    0.2407   -4.5984 H   0  0  0  0  0  0  0  0  0  0  0  0
    2.2116   -0.0725   -2.9742 H   0  0  0  0  0  0  0  0  0  0  0  0
    0.2384   -3.2472    0.5445 C   0  0  0  0  0  0  0  0  0  0  0  0
   -0.1543   -2.2141    1.1071 O   0  0  0  0  0  0  0  0  0  0  0  0
   -0.1155   -4.4648    1.0164 N   0  0  0  0  0  0  0  0  0  0  0  0
   -0.7653   -4.5209    1.7800 H   0  0  0  0  0  0  0  0  0  0  0  0
    0.1310   -5.3120    0.5385 H   0  0  0  0  0  0  0  0  0  0  0  0
    1.0084   -3.2092   -0.5480 N   0  0  0  0  0  0  0  0  0  0  0  0
    1.3738   -4.0542   -0.9483 H   0  0  0  0  0  0  0  0  0  0  0  0
    1.3996   -2.3159   -0.8715 H   0  0  0  0  0  0  0  0  0  0  0  0
    0.1336    0.2064    3.8489 C   0  0  0  0  0  0  0  0  0  0  0  0
   -0.0045    0.9281    2.8582 O   0  0  0  0  0  0  0  0  0  0  0  0
    0.0554   -1.1342    3.7693 N   0  0  0  0  0  0  0  0  0  0  0  0
   -0.0566   -1.5706    2.8603 H   0  0  0  0  0  0  0  0  0  0  0  0
    0.2378   -1.7165    4.5657 H   0  0  0  0  0  0  0  0  0  0  0  0
    0.3812    0.7313    5.0705 N   0  0  0  0  0  0  0  0  0  0  0  0
    0.3865    0.1691    5.9018 H   0  0  0  0  0  0  0  0  0  0  0  0
    0.3402    1.7298    5.1753 H   0  0  0  0  0  0  0  0  0  0  0  0
  1  2  1  0  0  0  0
  2  3  1  0  0  0  0
  2  4  1  0  0  0  0
  2  5  1  0  0  0  0
  5  6  1  0  0  0  0
  5  7  1  0  0  0  0
  5  8  1  0  0  0  0
  8  9  1  0  0  0  0
  9 10  1  0  0  0  0
  9 11  1  0  0  0  0
  9 12  1  0  0  0  0
  8 13  1  0  0  0  0
 13 14  1  0  0  0  0
 13 15  1  0  0  0  0
 13 16  1  0  0  0  0
  8 17  1  0  0  0  0
 17 18  1  0  0  0  0
 17 19  1  0  0  0  0
 17 20  1  0  0  0  0
  1 21  1  0  0  0  0
 22 23  4  0  0  0  0
 22 24  4  0  0  0  0
 24 25  1  0  0  0  0
 24 26  1  0  0  0  0
 22 27  4  0  0  0  0
 27 28  1  0  0  0  0
 27 29  1  0  0  0  0
 30 31  2  0  0  0  0
 30 32  1  0  0  0  0
 32 33  1  0  0  0  0
 32 34  1  0  0  0  0
 30 35  4  0  0  0  0
 35 36  1  0  0  0  0
 35 37  1  0  0  0  0
 38 39  4  0  0  0  0
 38 40  4  0  0  0  0
 40 41  1  0  0  0  0
 40 42  1  0  0  0  0
 38 43  4  0  0  0  0
 43 44  1  0  0  0  0
 43 45  1  0  0  0  0
 46 47  4  0  0  0  0
 46 48  4  0  0  0  0
 48 49  1  0  0  0  0
 48 50  1  0  0  0  0
 46 51  4  0  0  0  0
 51 52  1  0  0  0  0
 51 53  1  0  0  0  0
M  CHG  1   1   1
M  END
