 xtb: 6.6.1 (unknown-commit)
          01102418303D

 53 48  0     0  0            999 V2000
   -1.2669   -2.7421    1.8023 O   0  0  0  0  0  0  0  0  0  0  0  0
   -1.5038   -1.6597    0.9241 C   0  0  0  0  0  0  0  0  0  0  0  0
   -2.3364   -1.8975    0.2478 H   0  0  0  0  0  0  0  0  0  0  0  0
   -1.7776   -0.7552    1.4776 H   0  0  0  0  0  0  0  0  0  0  0  0
   -0.2537   -1.2928    0.1273 C   0  0  0  0  0  0  0  0  0  0  0  0
    0.5295   -0.9360    0.7994 H   0  0  0  0  0  0  0  0  0  0  0  0
   -0.5494   -0.4914   -0.5520 H   0  0  0  0  0  0  0  0  0  0  0  0
    0.3548   -2.3726   -0.6960 N   0  0  0  0  0  0  0  0  0  0  0  0
    1.0676   -3.3318    0.1637 C   0  0  0  0  0  0  0  0  0  0  0  0
    1.8683   -2.7999    0.6774 H   0  0  0  0  0  0  0  0  0  0  0  0
    1.4886   -4.1313   -0.4421 H   0  0  0  0  0  0  0  0  0  0  0  0
    0.3835   -3.7460    0.8990 H   0  0  0  0  0  0  0  0  0  0  0  0
    1.3280   -1.7308   -1.5972 C   0  0  0  0  0  0  0  0  0  0  0  0
    2.0464   -1.1734   -0.9972 H   0  0  0  0  0  0  0  0  0  0  0  0
    0.7999   -1.0618   -2.2730 H   0  0  0  0  0  0  0  0  0  0  0  0
    1.8526   -2.4898   -2.1738 H   0  0  0  0  0  0  0  0  0  0  0  0
   -0.6601   -3.0617   -1.5031 C   0  0  0  0  0  0  0  0  0  0  0  0
   -1.3389   -3.6164   -0.8605 H   0  0  0  0  0  0  0  0  0  0  0  0
   -0.1763   -3.7601   -2.1835 H   0  0  0  0  0  0  0  0  0  0  0  0
   -1.2102   -2.3220   -2.0836 H   0  0  0  0  0  0  0  0  0  0  0  0
   -1.9421   -2.7575    2.4865 H   0  0  0  0  0  0  0  0  0  0  0  0
    3.5415   -0.3982    1.8291 C   0  0  0  0  0  0  0  0  0  0  0  0
    2.8043   -0.9591    1.0240 O   0  0  0  0  0  0  0  0  0  0  0  0
    3.5176    0.9345    2.0271 N   0  0  0  0  0  0  0  0  0  0  0  0
    2.7393    1.4647    1.6325 H   0  0  0  0  0  0  0  0  0  0  0  0
    4.0184    1.3425    2.7960 H   0  0  0  0  0  0  0  0  0  0  0  0
    4.4432   -1.0979    2.5703 N   0  0  0  0  0  0  0  0  0  0  0  0
    5.1432   -0.6317    3.1184 H   0  0  0  0  0  0  0  0  0  0  0  0
    4.5982   -2.0643    2.3444 H   0  0  0  0  0  0  0  0  0  0  0  0
    1.2603    1.9533   -0.4224 C   0  0  0  0  0  0  0  0  0  0  0  0
    1.3592    2.2177    0.7803 O   0  0  0  0  0  0  0  0  0  0  0  0
    2.3563    1.6729   -1.1718 N   0  0  0  0  0  0  0  0  0  0  0  0
    3.2613    1.8295   -0.7634 H   0  0  0  0  0  0  0  0  0  0  0  0
    2.2936    1.6374   -2.1732 H   0  0  0  0  0  0  0  0  0  0  0  0
    0.0747    1.9241   -1.0511 N   0  0  0  0  0  0  0  0  0  0  0  0
   -0.0173    1.4928   -1.9574 H   0  0  0  0  0  0  0  0  0  0  0  0
   -0.7629    1.9094   -0.4674 H   0  0  0  0  0  0  0  0  0  0  0  0
   -2.3568    0.2600   -2.9474 C   0  0  0  0  0  0  0  0  0  0  0  0
   -1.2128   -0.1097   -2.6870 O   0  0  0  0  0  0  0  0  0  0  0  0
   -2.8693    0.1285   -4.1955 N   0  0  0  0  0  0  0  0  0  0  0  0
   -2.2749   -0.2145   -4.9284 H   0  0  0  0  0  0  0  0  0  0  0  0
   -3.7777    0.4749   -4.4430 H   0  0  0  0  0  0  0  0  0  0  0  0
   -3.1899    0.7560   -2.0120 N   0  0  0  0  0  0  0  0  0  0  0  0
   -4.0788    1.1419   -2.2744 H   0  0  0  0  0  0  0  0  0  0  0  0
   -2.8396    0.9748   -1.0870 H   0  0  0  0  0  0  0  0  0  0  0  0
   -2.1527    2.1804    1.6570 C   0  0  0  0  0  0  0  0  0  0  0  0
   -2.1883    1.5745    0.5799 O   0  0  0  0  0  0  0  0  0  0  0  0
   -1.0085    2.6152    2.1953 N   0  0  0  0  0  0  0  0  0  0  0  0
   -0.1210    2.4813    1.6985 H   0  0  0  0  0  0  0  0  0  0  0  0
   -1.0004    3.1222    3.0612 H   0  0  0  0  0  0  0  0  0  0  0  0
   -3.2878    2.3840    2.3752 N   0  0  0  0  0  0  0  0  0  0  0  0
   -3.2979    2.9872    3.1776 H   0  0  0  0  0  0  0  0  0  0  0  0
   -4.1688    2.1648    1.9452 H   0  0  0  0  0  0  0  0  0  0  0  0
  1  2  1  0  0  0  0
  2  3  1  0  0  0  0
  2  4  1  0  0  0  0
  2  5  1  0  0  0  0
  5  6  1  0  0  0  0
  5  7  1  0  0  0  0
  5  8  1  0  0  0  0
  8  9  1  0  0  0  0
  9 10  1  0  0  0  0
  9 11  1  0  0  0  0
  9 12  1  0  0  0  0
  8 13  1  0  0  0  0
 13 14  1  0  0  0  0
 13 15  1  0  0  0  0
 13 16  1  0  0  0  0
  8 17  1  0  0  0  0
 17 18  1  0  0  0  0
 17 19  1  0  0  0  0
 17 20  1  0  0  0  0
  1 21  1  0  0  0  0
 22 23  2  0  0  0  0
 22 24  4  0  0  0  0
 24 25  1  0  0  0  0
 24 26  1  0  0  0  0
 22 27  1  0  0  0  0
 27 28  1  0  0  0  0
 27 29  1  0  0  0  0
 30 31  4  0  0  0  0
 30 32  4  0  0  0  0
 32 33  1  0  0  0  0
 32 34  1  0  0  0  0
 30 35  4  0  0  0  0
 35 36  1  0  0  0  0
 35 37  1  0  0  0  0
 38 39  2  0  0  0  0
 38 40  4  0  0  0  0
 40 41  1  0  0  0  0
 40 42  1  0  0  0  0
 38 43  4  0  0  0  0
 43 44  1  0  0  0  0
 43 45  1  0  0  0  0
 46 47  4  0  0  0  0
 46 48  4  0  0  0  0
 48 49  1  0  0  0  0
 48 50  1  0  0  0  0
 46 51  1  0  0  0  0
 51 52  1  0  0  0  0
 51 53  1  0  0  0  0
M  CHG  1   1   1
M  END
