  53

 O          0.4362388828        1.5216500458       -0.6791624204
 C         -0.5851615643        1.9297685325       -1.5457657205
 H         -1.0908587643        2.7749642502       -1.0710272777
 H         -0.1486844510        2.2870374356       -2.4913858610
 C         -1.5694935596        0.8162417043       -1.9218098294
 H         -0.9771106440       -0.0497111388       -2.2305585679
 H         -2.1707832708        1.1592976631       -2.7663381095
 N         -2.4955854135        0.3666553913       -0.8509278924
 C         -1.7517885672       -0.1306528388        0.3200433475
 H         -2.4608826211       -0.5985936002        1.0002904412
 H         -1.2804075159        0.7029099256        0.8344477258
 H         -0.9956457719       -0.8450413447        0.0026230943
 C         -3.3142977673       -0.7396396540       -1.3748724549
 H         -2.6740430533       -1.5705498173       -1.6643085774
 H         -3.8888724853       -0.4121692492       -2.2394556917
 H         -3.9981924657       -1.0671140480       -0.5926913774
 C         -3.3958013468        1.4507721691       -0.4252680348
 H         -3.8932445000        1.8914596240       -1.2861196774
 H         -2.8404392415        2.2093169063        0.1208843256
 H         -4.1344153813        1.0254805789        0.2542501864
 H          0.6830762681        0.5876242011       -0.9230772382
 C          6.2955133253       -2.9610392156       -2.1674603998
 O          5.1813357735       -2.4930793933       -1.9751520961
 N          7.3453324437       -2.1920743341       -2.5447426298
 H          7.1690768483       -1.2341579059       -2.7905773811
 H          8.2227081637       -2.5936399766       -2.8210691690
 N          6.5592788663       -4.2818782270       -2.0176060950
 H          7.4958446897       -4.6409081816       -2.0550232641
 H          5.8489167458       -4.8672395627       -1.6152784862
 C         -0.7660674327        3.0933864862        2.4208391201
 O         -1.7654602005        2.5294628835        1.9848626622
 N          0.4241837887        3.0268495413        1.7947209298
 H          0.5153337509        2.4715170871        0.9515009471
 H          1.2434608506        3.4639828648        2.1736465097
 N         -0.7963893020        3.8004406312        3.5803312076
 H         -0.0231713423        4.3721217352        3.8679981832
 H         -1.6899230162        3.9771436046        4.0034306766
 C          2.0096549191       -1.3920046025       -1.5579411364
 O          0.8431700892       -0.9997643202       -1.4106988218
 N          3.0712079620       -0.5861622350       -1.3748746249
 H          2.9422531383        0.3624258816       -1.0730723146
 H          3.9983545549       -0.9651938817       -1.4959259126
 N          2.3066350422       -2.6509965368       -1.9176787982
 H          3.2757124685       -2.9113629185       -2.0326578652
 H          1.5717664441       -3.3092976129       -2.0978299295
 C         -4.6305030381       -0.0338791998        2.8134444359
 O         -4.5053716632       -0.4463319138        1.6660051170
 N         -5.5846996341       -0.5285776493        3.6426933178
 H         -6.1264882508       -1.3117613592        3.3241377893
 H         -5.6296001794       -0.2848821408        4.6148509128
 N         -3.8437189376        0.9339709743        3.3324254289
 H         -4.0231538873        1.2971020398        4.2504593489
 H         -3.1680319126        1.4230531648        2.7565047204
