  53

 O         -1.3595045837       -1.5277188482       -1.4175457098
 C         -2.1951729443       -0.5162536179       -1.8909882197
 H         -2.4923147600       -0.7980235978       -2.9042360314
 H         -3.1109055307       -0.4555207283       -1.2820491274
 C         -1.5615754192        0.8820697222       -1.8445075263
 H         -1.1874685211        1.0376612438       -0.8285072183
 H         -2.3399343844        1.6187532511       -2.0545446680
 N         -0.4281896779        1.1326507088       -2.7712926748
 C          0.7051072214        0.2389849988       -2.4736793977
 H          1.0623288585        0.4381846834       -1.4651510735
 H          1.5052721771        0.4572021191       -3.1789227642
 H          0.3989182732       -0.8001188785       -2.5571659607
 C          0.0170826233        2.5252542829       -2.5815873924
 H          0.3716195921        2.6605050066       -1.5619109985
 H         -0.7955699759        3.2170180912       -2.7904533059
 H          0.8493500364        2.7137718740       -3.2608078728
 C         -0.8117500936        0.9545409281       -4.1795305696
 H         -1.6765045144        1.5710872748       -4.4187859613
 H         -1.0440739775       -0.0880877858       -4.3821249275
 H          0.0283836663        1.2528493821       -4.8054129722
 H         -1.0078963406       -1.2297524923       -0.5419215734
 C          2.3226199649        1.7627616751        0.9051027652
 O          1.9764426629        1.9787070825       -0.2522788234
 N          3.4858334245        2.2668502150        1.4019460511
 H          3.9562170290        2.9723538954        0.8625432106
 H          3.6853180474        2.2349900133        2.3857634572
 N          1.5865331187        1.0191050755        1.7538480395
 H          1.9752955370        0.7287860878        2.6333379731
 H          0.7901619498        0.4912227090        1.3927201536
 C          3.5714418439        2.2931688640       -3.8273785360
 O          2.4673474441        2.0028753359       -4.2721046911
 N          3.7970341233        2.5058241091       -2.5105542720
 H          3.0743323087        2.3112821316       -1.8249744486
 H          4.7362830073        2.6206761880       -2.1754663063
 N          4.6524948043        2.4158263543       -4.6399935093
 H          5.5232947091        2.7937030304       -4.3141243704
 H          4.4957375187        2.3850368985       -5.6318772628
 C         -3.3289798076       -3.6784720624        5.0745751707
 O         -2.7953739232       -2.9140942473        4.2803855606
 N         -3.5053928265       -4.9934199894        4.8022425054
 H         -3.0856204813       -5.3736392459        3.9727359041
 H         -3.8430808124       -5.6368204224        5.4945067169
 N         -3.7797893099       -3.2629575914        6.2816815468
 H         -4.3161694675       -3.8619759227        6.8823094097
 H         -3.7767000254       -2.2782857065        6.4799258282
 C         -1.2098552537       -1.1706916330        1.8802277402
 O         -0.6592720269       -0.5164964828        0.9770995054
 N         -1.8697945620       -2.3121995529        1.6413086100
 H         -1.9030568921       -2.6935473174        0.7116528535
 H         -2.3042451898       -2.7923134164        2.4182659532
 N         -1.1684804012       -0.7873732817        3.1695885552
 H         -1.6929955575       -1.3213432922        3.8473654321
 H         -0.8089195094        0.1181301473        3.4104483210
