 xtb: 6.6.1 (unknown-commit)
          01102418283D

 53 48  0     0  0            999 V2000
   -0.5452   -2.3459    2.3977 O   0  0  0  0  0  0  0  0  0  0  0  0
   -0.9498   -1.4241    1.4030 C   0  0  0  0  0  0  0  0  0  0  0  0
   -1.9297   -1.7109    0.9984 H   0  0  0  0  0  0  0  0  0  0  0  0
   -1.0413   -0.4143    1.8199 H   0  0  0  0  0  0  0  0  0  0  0  0
    0.0855   -1.3114    0.2870 C   0  0  0  0  0  0  0  0  0  0  0  0
    1.0043   -0.8824    0.6871 H   0  0  0  0  0  0  0  0  0  0  0  0
   -0.3412   -0.6399   -0.4616 H   0  0  0  0  0  0  0  0  0  0  0  0
    0.4619   -2.5680   -0.4146 N   0  0  0  0  0  0  0  0  0  0  0  0
    1.3341   -3.3916    0.4377 C   0  0  0  0  0  0  0  0  0  0  0  0
    2.2505   -2.8376    0.6363 H   0  0  0  0  0  0  0  0  0  0  0  0
    1.5790   -4.3225   -0.0698 H   0  0  0  0  0  0  0  0  0  0  0  0
    0.8356   -3.6045    1.3795 H   0  0  0  0  0  0  0  0  0  0  0  0
    1.2129   -2.1849   -1.6233 C   0  0  0  0  0  0  0  0  0  0  0  0
    2.0964   -1.6229   -1.3284 H   0  0  0  0  0  0  0  0  0  0  0  0
    0.5741   -1.5723   -2.2571 H   0  0  0  0  0  0  0  0  0  0  0  0
    1.5204   -3.0769   -2.1653 H   0  0  0  0  0  0  0  0  0  0  0  0
   -0.7353   -3.3184   -0.8155 C   0  0  0  0  0  0  0  0  0  0  0  0
   -1.2557   -3.6915    0.0628 H   0  0  0  0  0  0  0  0  0  0  0  0
   -0.4510   -4.1646   -1.4381 H   0  0  0  0  0  0  0  0  0  0  0  0
   -1.3848   -2.6537   -1.3848 H   0  0  0  0  0  0  0  0  0  0  0  0
   -1.0617   -2.2039    3.1962 H   0  0  0  0  0  0  0  0  0  0  0  0
    3.7405   -0.3413    1.4662 C   0  0  0  0  0  0  0  0  0  0  0  0
    3.2947   -0.7956    0.4077 O   0  0  0  0  0  0  0  0  0  0  0  0
    3.1247    0.6522    2.1225 N   0  0  0  0  0  0  0  0  0  0  0  0
    2.2835    1.0698    1.7142 H   0  0  0  0  0  0  0  0  0  0  0  0
    3.5039    1.0397    2.9664 H   0  0  0  0  0  0  0  0  0  0  0  0
    4.8494   -0.8687    2.0415 N   0  0  0  0  0  0  0  0  0  0  0  0
    5.2896   -0.4331    2.8315 H   0  0  0  0  0  0  0  0  0  0  0  0
    5.3845   -1.5377    1.5168 H   0  0  0  0  0  0  0  0  0  0  0  0
    0.9479    1.7735   -0.4183 C   0  0  0  0  0  0  0  0  0  0  0  0
    0.8582    1.6266    0.8115 O   0  0  0  0  0  0  0  0  0  0  0  0
    1.9918    1.2607   -1.0973 N   0  0  0  0  0  0  0  0  0  0  0  0
    2.6200    0.6228   -0.6174 H   0  0  0  0  0  0  0  0  0  0  0  0
    2.0599    1.3534   -2.0937 H   0  0  0  0  0  0  0  0  0  0  0  0
    0.0370    2.4762   -1.1117 N   0  0  0  0  0  0  0  0  0  0  0  0
    0.0598    2.4702   -2.1157 H   0  0  0  0  0  0  0  0  0  0  0  0
   -0.8648    2.6556   -0.6691 H   0  0  0  0  0  0  0  0  0  0  0  0
   -2.3068    0.0081   -2.8698 C   0  0  0  0  0  0  0  0  0  0  0  0
   -1.3694   -0.5488   -2.3037 O   0  0  0  0  0  0  0  0  0  0  0  0
   -2.7768   -0.4483   -4.0627 N   0  0  0  0  0  0  0  0  0  0  0  0
   -2.2657   -1.1715   -4.5360 H   0  0  0  0  0  0  0  0  0  0  0  0
   -3.4611    0.0621   -4.5903 H   0  0  0  0  0  0  0  0  0  0  0  0
   -2.9394    1.0803   -2.3642 N   0  0  0  0  0  0  0  0  0  0  0  0
   -3.7362    1.4761   -2.8286 H   0  0  0  0  0  0  0  0  0  0  0  0
   -2.7099    1.4424   -1.4467 H   0  0  0  0  0  0  0  0  0  0  0  0
   -2.5350    2.6276    1.3223 C   0  0  0  0  0  0  0  0  0  0  0  0
   -2.4913    2.4816    0.0999 O   0  0  0  0  0  0  0  0  0  0  0  0
   -1.4916    2.3256    2.1156 N   0  0  0  0  0  0  0  0  0  0  0  0
   -0.5919    2.1086    1.6725 H   0  0  0  0  0  0  0  0  0  0  0  0
   -1.4930    2.5890    3.0845 H   0  0  0  0  0  0  0  0  0  0  0  0
   -3.6727    3.0372    1.9357 N   0  0  0  0  0  0  0  0  0  0  0  0
   -3.6979    3.2695    2.9116 H   0  0  0  0  0  0  0  0  0  0  0  0
   -4.4456    3.3223    1.3610 H   0  0  0  0  0  0  0  0  0  0  0  0
  1  2  1  0  0  0  0
  2  3  1  0  0  0  0
  2  4  1  0  0  0  0
  2  5  1  0  0  0  0
  5  6  1  0  0  0  0
  5  7  1  0  0  0  0
  5  8  1  0  0  0  0
  8  9  1  0  0  0  0
  9 10  1  0  0  0  0
  9 11  1  0  0  0  0
  9 12  1  0  0  0  0
  8 13  1  0  0  0  0
 13 14  1  0  0  0  0
 13 15  1  0  0  0  0
 13 16  1  0  0  0  0
  8 17  1  0  0  0  0
 17 18  1  0  0  0  0
 17 19  1  0  0  0  0
 17 20  1  0  0  0  0
  1 21  1  0  0  0  0
 22 23  4  0  0  0  0
 22 24  4  0  0  0  0
 24 25  1  0  0  0  0
 24 26  1  0  0  0  0
 22 27  4  0  0  0  0
 27 28  1  0  0  0  0
 27 29  1  0  0  0  0
 30 31  4  0  0  0  0
 30 32  4  0  0  0  0
 32 33  1  0  0  0  0
 32 34  1  0  0  0  0
 30 35  4  0  0  0  0
 35 36  1  0  0  0  0
 35 37  1  0  0  0  0
 38 39  2  0  0  0  0
 38 40  1  0  0  0  0
 40 41  1  0  0  0  0
 40 42  1  0  0  0  0
 38 43  4  0  0  0  0
 43 44  1  0  0  0  0
 43 45  1  0  0  0  0
 46 47  4  0  0  0  0
 46 48  4  0  0  0  0
 48 49  1  0  0  0  0
 48 50  1  0  0  0  0
 46 51  4  0  0  0  0
 51 52  1  0  0  0  0
 51 53  1  0  0  0  0
M  CHG  1   1   1
M  END
