  53

 O          2.0294598199        1.5025712867       -2.1448165446
 C          0.6490717423        1.6319739740       -1.9511245747
 H          0.4689249396        2.6886505686       -1.7409032887
 H          0.1033029952        1.3790849615       -2.8712474951
 C          0.0902388304        0.7235740116       -0.8510282878
 H          0.4528920933       -0.2861479855       -1.0454256756
 H         -1.0015349830        0.7153626938       -0.8958251973
 N          0.4598541408        1.0741776879        0.5445541116
 C          1.9150286601        1.1894222216        0.7191767355
 H          2.3935091458        0.2518922788        0.4433691240
 H          2.1182033557        1.4132627469        1.7655932421
 H          2.3129956863        1.9773337335        0.0846177403
 C         -0.0382904120        0.0054765248        1.4272862255
 H          0.4174069337       -0.9448695606        1.1575630883
 H         -1.1183517920       -0.0669062201        1.3129054180
 H          0.2137354902        0.2564832502        2.4560792962
 C         -0.1872525033        2.3298414855        0.9544504057
 H         -1.2640046270        2.2271485375        0.8321190009
 H          0.1736481887        3.1590205712        0.3522402900
 H          0.0541871696        2.5167451101        1.9996494388
 H          2.2357146584        0.5705720820       -2.3293149152
 C          2.3047286439       -2.3042553731       -1.4465903272
 O          2.1969978286       -1.3456503414       -2.2148780070
 N          3.5200198585       -2.7760181100       -1.0847830242
 H          4.3279967522       -2.4046332370       -1.5534298129
 H          3.6276355746       -3.6217492770       -0.5548401758
 N          1.2279836744       -2.8574832772       -0.8500779748
 H          1.3135658703       -3.7328108105       -0.3641711659
 H          0.3018489467       -2.6138694914       -1.2177452395
 C          1.4484184124        2.1626474767        4.8795466337
 O          1.2258563437        1.7861538823        3.7372436311
 N          2.7020735989        2.4045525937        5.3294683175
 H          3.4792617213        2.2274802599        4.7196413112
 H          2.8911873163        2.6684393457        6.2784958758
 N          0.4553057567        2.3654236959        5.7775183493
 H          0.6276449404        2.7256815793        6.6975914512
 H         -0.4965048666        2.2475289495        5.4812377266
 C         -1.2138052951       -1.6949284529       -3.1748580593
 O         -1.2015403386       -2.0246797625       -1.9831642135
 N         -0.0955056320       -1.3494627959       -3.8283573258
 H          0.7956205662       -1.3547151521       -3.3318973365
 H         -0.1030395666       -1.1279121842       -4.8067528979
 N         -2.3694053766       -1.6577771250       -3.8761876567
 H         -2.4030197923       -1.3663979251       -4.8354292081
 H         -3.2313689414       -1.8662957155       -3.4056629774
 C         -3.7574346902       -0.2165232322        0.0388629985
 O         -2.8339100239        0.5784583237        0.1601903820
 N         -4.9576216176       -0.0119010821        0.6449850158
 H         -5.1203187856        0.8875042573        1.0627462549
 H         -5.7621742021       -0.5667333996        0.4144478567
 N         -3.6518785932       -1.3481770055       -0.6956684001
 H         -4.3478373534       -2.0674649793       -0.6081428934
 H         -2.7310314198       -1.6224457221       -1.0361006209
