 xtb: 6.6.1 (unknown-commit)
          01102418303D

 53 48  0     0  0            999 V2000
    2.0295    1.5026   -2.1448 O   0  0  0  0  0  0  0  0  0  0  0  0
    0.6491    1.6320   -1.9511 C   0  0  0  0  0  0  0  0  0  0  0  0
    0.4689    2.6886   -1.7409 H   0  0  0  0  0  0  0  0  0  0  0  0
    0.1033    1.3791   -2.8713 H   0  0  0  0  0  0  0  0  0  0  0  0
    0.0902    0.7236   -0.8510 C   0  0  0  0  0  0  0  0  0  0  0  0
    0.4529   -0.2862   -1.0454 H   0  0  0  0  0  0  0  0  0  0  0  0
   -1.0015    0.7154   -0.8958 H   0  0  0  0  0  0  0  0  0  0  0  0
    0.4599    1.0742    0.5446 N   0  0  0  0  0  0  0  0  0  0  0  0
    1.9150    1.1894    0.7192 C   0  0  0  0  0  0  0  0  0  0  0  0
    2.3935    0.2519    0.4434 H   0  0  0  0  0  0  0  0  0  0  0  0
    2.1182    1.4133    1.7656 H   0  0  0  0  0  0  0  0  0  0  0  0
    2.3130    1.9773    0.0846 H   0  0  0  0  0  0  0  0  0  0  0  0
   -0.0383    0.0055    1.4273 C   0  0  0  0  0  0  0  0  0  0  0  0
    0.4174   -0.9449    1.1576 H   0  0  0  0  0  0  0  0  0  0  0  0
   -1.1183   -0.0669    1.3129 H   0  0  0  0  0  0  0  0  0  0  0  0
    0.2137    0.2565    2.4561 H   0  0  0  0  0  0  0  0  0  0  0  0
   -0.1872    2.3298    0.9544 C   0  0  0  0  0  0  0  0  0  0  0  0
   -1.2640    2.2272    0.8321 H   0  0  0  0  0  0  0  0  0  0  0  0
    0.1737    3.1590    0.3522 H   0  0  0  0  0  0  0  0  0  0  0  0
    0.0542    2.5167    1.9996 H   0  0  0  0  0  0  0  0  0  0  0  0
    2.2357    0.5706   -2.3293 H   0  0  0  0  0  0  0  0  0  0  0  0
    2.3047   -2.3043   -1.4466 C   0  0  0  0  0  0  0  0  0  0  0  0
    2.1970   -1.3457   -2.2149 O   0  0  0  0  0  0  0  0  0  0  0  0
    3.5200   -2.7760   -1.0848 N   0  0  0  0  0  0  0  0  0  0  0  0
    4.3280   -2.4047   -1.5534 H   0  0  0  0  0  0  0  0  0  0  0  0
    3.6276   -3.6218   -0.5548 H   0  0  0  0  0  0  0  0  0  0  0  0
    1.2280   -2.8575   -0.8501 N   0  0  0  0  0  0  0  0  0  0  0  0
    1.3135   -3.7328   -0.3642 H   0  0  0  0  0  0  0  0  0  0  0  0
    0.3018   -2.6139   -1.2177 H   0  0  0  0  0  0  0  0  0  0  0  0
    1.4484    2.1626    4.8795 C   0  0  0  0  0  0  0  0  0  0  0  0
    1.2259    1.7862    3.7372 O   0  0  0  0  0  0  0  0  0  0  0  0
    2.7021    2.4045    5.3295 N   0  0  0  0  0  0  0  0  0  0  0  0
    3.4793    2.2275    4.7196 H   0  0  0  0  0  0  0  0  0  0  0  0
    2.8912    2.6684    6.2785 H   0  0  0  0  0  0  0  0  0  0  0  0
    0.4553    2.3654    5.7775 N   0  0  0  0  0  0  0  0  0  0  0  0
    0.6277    2.7257    6.6976 H   0  0  0  0  0  0  0  0  0  0  0  0
   -0.4965    2.2475    5.4812 H   0  0  0  0  0  0  0  0  0  0  0  0
   -1.2138   -1.6949   -3.1749 C   0  0  0  0  0  0  0  0  0  0  0  0
   -1.2016   -2.0247   -1.9832 O   0  0  0  0  0  0  0  0  0  0  0  0
   -0.0955   -1.3495   -3.8284 N   0  0  0  0  0  0  0  0  0  0  0  0
    0.7956   -1.3547   -3.3319 H   0  0  0  0  0  0  0  0  0  0  0  0
   -0.1031   -1.1279   -4.8068 H   0  0  0  0  0  0  0  0  0  0  0  0
   -2.3694   -1.6578   -3.8762 N   0  0  0  0  0  0  0  0  0  0  0  0
   -2.4030   -1.3664   -4.8354 H   0  0  0  0  0  0  0  0  0  0  0  0
   -3.2314   -1.8663   -3.4056 H   0  0  0  0  0  0  0  0  0  0  0  0
   -3.7574   -0.2165    0.0389 C   0  0  0  0  0  0  0  0  0  0  0  0
   -2.8339    0.5785    0.1602 O   0  0  0  0  0  0  0  0  0  0  0  0
   -4.9576   -0.0119    0.6450 N   0  0  0  0  0  0  0  0  0  0  0  0
   -5.1203    0.8875    1.0628 H   0  0  0  0  0  0  0  0  0  0  0  0
   -5.7622   -0.5667    0.4145 H   0  0  0  0  0  0  0  0  0  0  0  0
   -3.6519   -1.3482   -0.6957 N   0  0  0  0  0  0  0  0  0  0  0  0
   -4.3479   -2.0674   -0.6081 H   0  0  0  0  0  0  0  0  0  0  0  0
   -2.7310   -1.6224   -1.0361 H   0  0  0  0  0  0  0  0  0  0  0  0
  1  2  1  0  0  0  0
  2  3  1  0  0  0  0
  2  4  1  0  0  0  0
  2  5  1  0  0  0  0
  5  6  1  0  0  0  0
  5  7  1  0  0  0  0
  5  8  1  0  0  0  0
  8  9  1  0  0  0  0
  9 10  1  0  0  0  0
  9 11  1  0  0  0  0
  9 12  1  0  0  0  0
  8 13  1  0  0  0  0
 13 14  1  0  0  0  0
 13 15  1  0  0  0  0
 13 16  1  0  0  0  0
  8 17  1  0  0  0  0
 17 18  1  0  0  0  0
 17 19  1  0  0  0  0
 17 20  1  0  0  0  0
  1 21  1  0  0  0  0
 22 23  4  0  0  0  0
 22 24  4  0  0  0  0
 24 25  1  0  0  0  0
 24 26  1  0  0  0  0
 22 27  4  0  0  0  0
 27 28  1  0  0  0  0
 27 29  1  0  0  0  0
 30 31  2  0  0  0  0
 30 32  4  0  0  0  0
 32 33  1  0  0  0  0
 32 34  1  0  0  0  0
 30 35  4  0  0  0  0
 35 36  1  0  0  0  0
 35 37  1  0  0  0  0
 38 39  4  0  0  0  0
 38 40  4  0  0  0  0
 40 41  1  0  0  0  0
 40 42  1  0  0  0  0
 38 43  4  0  0  0  0
 43 44  1  0  0  0  0
 43 45  1  0  0  0  0
 46 47  2  0  0  0  0
 46 48  1  0  0  0  0
 48 49  1  0  0  0  0
 48 50  1  0  0  0  0
 46 51  4  0  0  0  0
 51 52  1  0  0  0  0
 51 53  1  0  0  0  0
M  CHG  1   1   1
M  END
