 xtb: 6.6.1 (unknown-commit)
          01102415383D

 53 48  0     0  0            999 V2000
    0.7542   -1.0649   -1.4205 O   0  0  0  0  0  0  0  0  0  0  0  0
    0.9458   -2.3341   -0.8761 C   0  0  0  0  0  0  0  0  0  0  0  0
    0.7568   -3.0518   -1.6801 H   0  0  0  0  0  0  0  0  0  0  0  0
    1.9881   -2.4681   -0.5520 H   0  0  0  0  0  0  0  0  0  0  0  0
    0.0753   -2.6400    0.3532 C   0  0  0  0  0  0  0  0  0  0  0  0
    0.3225   -1.9460    1.1622 H   0  0  0  0  0  0  0  0  0  0  0  0
    0.3091   -3.6563    0.6764 H   0  0  0  0  0  0  0  0  0  0  0  0
   -1.3957   -2.5419    0.1559 N   0  0  0  0  0  0  0  0  0  0  0  0
   -2.0585   -3.1064    1.3443 C   0  0  0  0  0  0  0  0  0  0  0  0
   -1.7214   -2.5619    2.2248 H   0  0  0  0  0  0  0  0  0  0  0  0
   -1.8137   -4.1614    1.4487 H   0  0  0  0  0  0  0  0  0  0  0  0
   -3.1349   -2.9936    1.2264 H   0  0  0  0  0  0  0  0  0  0  0  0
   -1.8479   -3.2694   -1.0383 C   0  0  0  0  0  0  0  0  0  0  0  0
   -2.9367   -3.2412   -1.0647 H   0  0  0  0  0  0  0  0  0  0  0  0
   -1.5108   -4.3036   -1.0003 H   0  0  0  0  0  0  0  0  0  0  0  0
   -1.4600   -2.7926   -1.9350 H   0  0  0  0  0  0  0  0  0  0  0  0
   -1.8082   -1.1315    0.0436 C   0  0  0  0  0  0  0  0  0  0  0  0
   -1.3281   -0.6755   -0.8185 H   0  0  0  0  0  0  0  0  0  0  0  0
   -1.5074   -0.6074    0.9493 H   0  0  0  0  0  0  0  0  0  0  0  0
   -2.8903   -1.0977   -0.0652 H   0  0  0  0  0  0  0  0  0  0  0  0
    1.0319   -0.3943   -0.7419 H   0  0  0  0  0  0  0  0  0  0  0  0
    4.6847    4.7682   -2.5980 C   0  0  0  0  0  0  0  0  0  0  0  0
    3.9201    4.0532   -1.9646 O   0  0  0  0  0  0  0  0  0  0  0  0
    4.7423    6.1085   -2.4078 N   0  0  0  0  0  0  0  0  0  0  0  0
    4.0453    6.5334   -1.8221 H   0  0  0  0  0  0  0  0  0  0  0  0
    5.2717    6.7065   -3.0159 H   0  0  0  0  0  0  0  0  0  0  0  0
    5.5301    4.2705   -3.5333 N   0  0  0  0  0  0  0  0  0  0  0  0
    6.2382    4.8388   -3.9612 H   0  0  0  0  0  0  0  0  0  0  0  0
    5.6152    3.2730   -3.6167 H   0  0  0  0  0  0  0  0  0  0  0  0
    2.2661    1.6357   -0.2811 C   0  0  0  0  0  0  0  0  0  0  0  0
    1.6098    0.7679    0.3162 O   0  0  0  0  0  0  0  0  0  0  0  0
    2.5798    1.5299   -1.5820 N   0  0  0  0  0  0  0  0  0  0  0  0
    2.2032    0.7713   -2.1237 H   0  0  0  0  0  0  0  0  0  0  0  0
    3.0560    2.3007   -2.0294 H   0  0  0  0  0  0  0  0  0  0  0  0
    2.7493    2.7273    0.3398 N   0  0  0  0  0  0  0  0  0  0  0  0
    3.2151    3.4326   -0.2114 H   0  0  0  0  0  0  0  0  0  0  0  0
    2.4961    2.9159    1.2919 H   0  0  0  0  0  0  0  0  0  0  0  0
   -5.9608   -2.3582   -0.3066 C   0  0  0  0  0  0  0  0  0  0  0  0
   -4.7477   -2.4526   -0.1889 O   0  0  0  0  0  0  0  0  0  0  0  0
   -6.8170   -3.1804    0.3470 N   0  0  0  0  0  0  0  0  0  0  0  0
   -6.4387   -3.9504    0.8689 H   0  0  0  0  0  0  0  0  0  0  0  0
   -7.8046   -3.1702    0.1700 H   0  0  0  0  0  0  0  0  0  0  0  0
   -6.5390   -1.4246   -1.1009 N   0  0  0  0  0  0  0  0  0  0  0  0
   -7.5317   -1.2791   -1.1152 H   0  0  0  0  0  0  0  0  0  0  0  0
   -5.9534   -0.7298   -1.5281 H   0  0  0  0  0  0  0  0  0  0  0  0
    0.2523   -0.2386    3.5964 C   0  0  0  0  0  0  0  0  0  0  0  0
   -0.4451   -0.9550    2.8878 O   0  0  0  0  0  0  0  0  0  0  0  0
    1.0919    0.6861    3.0888 N   0  0  0  0  0  0  0  0  0  0  0  0
    1.2553    0.6990    2.0810 H   0  0  0  0  0  0  0  0  0  0  0  0
    1.7595    1.1412    3.6851 H   0  0  0  0  0  0  0  0  0  0  0  0
    0.2250   -0.3419    4.9542 N   0  0  0  0  0  0  0  0  0  0  0  0
    0.6569    0.3504    5.5392 H   0  0  0  0  0  0  0  0  0  0  0  0
   -0.4962   -0.9086    5.3642 H   0  0  0  0  0  0  0  0  0  0  0  0
  1  2  1  0  0  0  0
  2  3  1  0  0  0  0
  2  4  1  0  0  0  0
  2  5  1  0  0  0  0
  5  6  1  0  0  0  0
  5  7  1  0  0  0  0
  5  8  1  0  0  0  0
  8  9  1  0  0  0  0
  9 10  1  0  0  0  0
  9 11  1  0  0  0  0
  9 12  1  0  0  0  0
  8 13  1  0  0  0  0
 13 14  1  0  0  0  0
 13 15  1  0  0  0  0
 13 16  1  0  0  0  0
  8 17  1  0  0  0  0
 17 18  1  0  0  0  0
 17 19  1  0  0  0  0
 17 20  1  0  0  0  0
  1 21  1  0  0  0  0
 22 23  2  0  0  0  0
 22 24  4  0  0  0  0
 24 25  1  0  0  0  0
 24 26  1  0  0  0  0
 22 27  4  0  0  0  0
 27 28  1  0  0  0  0
 27 29  1  0  0  0  0
 30 31  4  0  0  0  0
 30 32  4  0  0  0  0
 32 33  1  0  0  0  0
 32 34  1  0  0  0  0
 30 35  4  0  0  0  0
 35 36  1  0  0  0  0
 35 37  1  0  0  0  0
 38 39  2  0  0  0  0
 38 40  4  0  0  0  0
 40 41  1  0  0  0  0
 40 42  1  0  0  0  0
 38 43  4  0  0  0  0
 43 44  1  0  0  0  0
 43 45  1  0  0  0  0
 46 47  2  0  0  0  0
 46 48  4  0  0  0  0
 48 49  1  0  0  0  0
 48 50  1  0  0  0  0
 46 51  1  0  0  0  0
 51 52  1  0  0  0  0
 51 53  1  0  0  0  0
M  CHG  1   1   1
M  END
