 xtb: 6.6.1 (unknown-commit)
          01102418303D

 53 48  0     0  0            999 V2000
   -1.9219   -1.2281   -0.6056 O   0  0  0  0  0  0  0  0  0  0  0  0
   -0.8550   -1.1051   -1.5090 C   0  0  0  0  0  0  0  0  0  0  0  0
   -1.0588   -1.8022   -2.3253 H   0  0  0  0  0  0  0  0  0  0  0  0
   -0.8341   -0.0927   -1.9343 H   0  0  0  0  0  0  0  0  0  0  0  0
    0.5238   -1.3290   -0.8820 C   0  0  0  0  0  0  0  0  0  0  0  0
    0.6215   -0.6862   -0.0029 H   0  0  0  0  0  0  0  0  0  0  0  0
    1.2899   -1.0244   -1.5964 H   0  0  0  0  0  0  0  0  0  0  0  0
    0.8448   -2.7125   -0.4336 N   0  0  0  0  0  0  0  0  0  0  0  0
   -0.0669   -3.1234    0.6474 C   0  0  0  0  0  0  0  0  0  0  0  0
    0.0470   -2.4317    1.4807 H   0  0  0  0  0  0  0  0  0  0  0  0
    0.1810   -4.1294    0.9797 H   0  0  0  0  0  0  0  0  0  0  0  0
   -1.0975   -3.0971    0.3006 H   0  0  0  0  0  0  0  0  0  0  0  0
    2.2201   -2.6951    0.0991 C   0  0  0  0  0  0  0  0  0  0  0  0
    2.2402   -2.0625    0.9853 H   0  0  0  0  0  0  0  0  0  0  0  0
    2.9050   -2.2777   -0.6359 H   0  0  0  0  0  0  0  0  0  0  0  0
    2.5308   -3.7021    0.3674 H   0  0  0  0  0  0  0  0  0  0  0  0
    0.7692   -3.6655   -1.5497 C   0  0  0  0  0  0  0  0  0  0  0  0
   -0.2558   -3.7639   -1.8996 H   0  0  0  0  0  0  0  0  0  0  0  0
    1.1158   -4.6452   -1.2249 H   0  0  0  0  0  0  0  0  0  0  0  0
    1.3988   -3.3240   -2.3694 H   0  0  0  0  0  0  0  0  0  0  0  0
   -1.7735   -0.5629    0.1089 H   0  0  0  0  0  0  0  0  0  0  0  0
    2.0049    0.3835    2.2402 C   0  0  0  0  0  0  0  0  0  0  0  0
    1.1796   -0.5190    2.0757 O   0  0  0  0  0  0  0  0  0  0  0  0
    1.9461    1.1883    3.3270 N   0  0  0  0  0  0  0  0  0  0  0  0
    1.2837    0.9771    4.0520 H   0  0  0  0  0  0  0  0  0  0  0  0
    2.6514    1.8762    3.5166 H   0  0  0  0  0  0  0  0  0  0  0  0
    3.0288    0.5949    1.3914 N   0  0  0  0  0  0  0  0  0  0  0  0
    3.5731    1.4338    1.4903 H   0  0  0  0  0  0  0  0  0  0  0  0
    2.9942    0.2018    0.4539 H   0  0  0  0  0  0  0  0  0  0  0  0
    3.3935    0.9426   -1.9914 C   0  0  0  0  0  0  0  0  0  0  0  0
    3.2485   -0.1354   -1.4147 O   0  0  0  0  0  0  0  0  0  0  0  0
    4.2695    1.0771   -3.0209 N   0  0  0  0  0  0  0  0  0  0  0  0
    4.9121    0.3238   -3.1922 H   0  0  0  0  0  0  0  0  0  0  0  0
    4.5010    1.9788   -3.3970 H   0  0  0  0  0  0  0  0  0  0  0  0
    2.6875    2.0375   -1.6579 N   0  0  0  0  0  0  0  0  0  0  0  0
    2.7676    2.8852   -2.1893 H   0  0  0  0  0  0  0  0  0  0  0  0
    1.9306    1.9673   -0.9833 H   0  0  0  0  0  0  0  0  0  0  0  0
   -0.7024    1.7659    0.3968 C   0  0  0  0  0  0  0  0  0  0  0  0
    0.4943    1.8472    0.1430 O   0  0  0  0  0  0  0  0  0  0  0  0
   -1.6371    2.5679   -0.1441 N   0  0  0  0  0  0  0  0  0  0  0  0
   -1.3607    3.3508   -0.7075 H   0  0  0  0  0  0  0  0  0  0  0  0
   -2.6023    2.4561    0.1369 H   0  0  0  0  0  0  0  0  0  0  0  0
   -1.2131    0.7611    1.1839 N   0  0  0  0  0  0  0  0  0  0  0  0
   -2.1470    0.9172    1.5457 H   0  0  0  0  0  0  0  0  0  0  0  0
   -0.5373    0.3012    1.7875 H   0  0  0  0  0  0  0  0  0  0  0  0
   -4.9382    0.7707    0.4251 C   0  0  0  0  0  0  0  0  0  0  0  0
   -3.9940    1.3666    0.9328 O   0  0  0  0  0  0  0  0  0  0  0  0
   -4.7664   -0.2395   -0.4581 N   0  0  0  0  0  0  0  0  0  0  0  0
   -3.8375   -0.6033   -0.6180 H   0  0  0  0  0  0  0  0  0  0  0  0
   -5.5468   -0.7824   -0.7797 H   0  0  0  0  0  0  0  0  0  0  0  0
   -6.2196    1.1021    0.7079 N   0  0  0  0  0  0  0  0  0  0  0  0
   -7.0025    0.6736    0.2500 H   0  0  0  0  0  0  0  0  0  0  0  0
   -6.3869    1.8914    1.3058 H   0  0  0  0  0  0  0  0  0  0  0  0
  1  2  1  0  0  0  0
  2  3  1  0  0  0  0
  2  4  1  0  0  0  0
  2  5  1  0  0  0  0
  5  6  1  0  0  0  0
  5  7  1  0  0  0  0
  5  8  1  0  0  0  0
  8  9  1  0  0  0  0
  9 10  1  0  0  0  0
  9 11  1  0  0  0  0
  9 12  1  0  0  0  0
  8 13  1  0  0  0  0
 13 14  1  0  0  0  0
 13 15  1  0  0  0  0
 13 16  1  0  0  0  0
  8 17  1  0  0  0  0
 17 18  1  0  0  0  0
 17 19  1  0  0  0  0
 17 20  1  0  0  0  0
  1 21  1  0  0  0  0
 22 23  4  0  0  0  0
 22 24  4  0  0  0  0
 24 25  1  0  0  0  0
 24 26  1  0  0  0  0
 22 27  4  0  0  0  0
 27 28  1  0  0  0  0
 27 29  1  0  0  0  0
 30 31  2  0  0  0  0
 30 32  1  0  0  0  0
 32 33  1  0  0  0  0
 32 34  1  0  0  0  0
 30 35  4  0  0  0  0
 35 36  1  0  0  0  0
 35 37  1  0  0  0  0
 38 39  2  0  0  0  0
 38 40  4  0  0  0  0
 40 41  1  0  0  0  0
 40 42  1  0  0  0  0
 38 43  1  0  0  0  0
 43 44  1  0  0  0  0
 43 45  1  0  0  0  0
 46 47  2  0  0  0  0
 46 48  4  0  0  0  0
 48 49  1  0  0  0  0
 48 50  1  0  0  0  0
 46 51  4  0  0  0  0
 51 52  1  0  0  0  0
 51 53  1  0  0  0  0
M  CHG  1   1   1
M  END
