 xtb: 6.6.1 (unknown-commit)
          01102418243D

 53 48  0     0  0            999 V2000
    0.3876   -1.9811    3.3649 O   0  0  0  0  0  0  0  0  0  0  0  0
   -0.6934   -1.3892    2.6934 C   0  0  0  0  0  0  0  0  0  0  0  0
   -1.5894   -1.7558    3.1987 H   0  0  0  0  0  0  0  0  0  0  0  0
   -0.6741   -0.2973    2.8104 H   0  0  0  0  0  0  0  0  0  0  0  0
   -0.7296   -1.6628    1.1879 C   0  0  0  0  0  0  0  0  0  0  0  0
    0.2347   -1.3879    0.7463 H   0  0  0  0  0  0  0  0  0  0  0  0
   -1.5157   -1.0518    0.7420 H   0  0  0  0  0  0  0  0  0  0  0  0
   -0.9761   -3.0708    0.7674 N   0  0  0  0  0  0  0  0  0  0  0  0
    0.1175   -3.9438    1.2245 C   0  0  0  0  0  0  0  0  0  0  0  0
    1.0530   -3.5780    0.8022 H   0  0  0  0  0  0  0  0  0  0  0  0
   -0.0555   -4.9642    0.8887 H   0  0  0  0  0  0  0  0  0  0  0  0
    0.1852   -3.9254    2.3102 H   0  0  0  0  0  0  0  0  0  0  0  0
   -1.0016   -3.0805   -0.7063 C   0  0  0  0  0  0  0  0  0  0  0  0
   -0.0605   -2.6769   -1.0771 H   0  0  0  0  0  0  0  0  0  0  0  0
   -1.8283   -2.4663   -1.0562 H   0  0  0  0  0  0  0  0  0  0  0  0
   -1.1255   -4.0986   -1.0693 H   0  0  0  0  0  0  0  0  0  0  0  0
   -2.2710   -3.5533    1.2671 C   0  0  0  0  0  0  0  0  0  0  0  0
   -2.2531   -3.6428    2.3505 H   0  0  0  0  0  0  0  0  0  0  0  0
   -2.4900   -4.5318    0.8434 H   0  0  0  0  0  0  0  0  0  0  0  0
   -3.0505   -2.8535    0.9685 H   0  0  0  0  0  0  0  0  0  0  0  0
    1.2159   -1.6071    3.0421 H   0  0  0  0  0  0  0  0  0  0  0  0
    2.5813   -0.7091   -0.4479 C   0  0  0  0  0  0  0  0  0  0  0  0
    1.8683   -1.7020   -0.3121 O   0  0  0  0  0  0  0  0  0  0  0  0
    3.5793   -0.6639   -1.3603 N   0  0  0  0  0  0  0  0  0  0  0  0
    3.8650   -1.5171   -1.8072 H   0  0  0  0  0  0  0  0  0  0  0  0
    4.2003    0.1253   -1.3924 H   0  0  0  0  0  0  0  0  0  0  0  0
    2.4413    0.4053    0.3133 N   0  0  0  0  0  0  0  0  0  0  0  0
    2.8570    1.2629   -0.0391 H   0  0  0  0  0  0  0  0  0  0  0  0
    1.5460    0.5431    0.7571 H   0  0  0  0  0  0  0  0  0  0  0  0
    2.4593    3.8370   -0.4656 C   0  0  0  0  0  0  0  0  0  0  0  0
    2.9403    2.8504   -1.0312 O   0  0  0  0  0  0  0  0  0  0  0  0
    3.1534    4.9910   -0.3655 N   0  0  0  0  0  0  0  0  0  0  0  0
    4.0849    5.0240   -0.7394 H   0  0  0  0  0  0  0  0  0  0  0  0
    2.8005    5.7941    0.1209 H   0  0  0  0  0  0  0  0  0  0  0  0
    1.2354    3.8050    0.0920 N   0  0  0  0  0  0  0  0  0  0  0  0
    0.8202    4.6304    0.4830 H   0  0  0  0  0  0  0  0  0  0  0  0
    0.6522    2.9781   -0.0431 H   0  0  0  0  0  0  0  0  0  0  0  0
   -0.0982    0.9710   -1.5686 C   0  0  0  0  0  0  0  0  0  0  0  0
   -0.2842    1.4538   -0.4380 O   0  0  0  0  0  0  0  0  0  0  0  0
    0.9446    1.3373   -2.3292 N   0  0  0  0  0  0  0  0  0  0  0  0
    1.6872    1.9128   -1.9283 H   0  0  0  0  0  0  0  0  0  0  0  0
    1.1285    0.8772   -3.2021 H   0  0  0  0  0  0  0  0  0  0  0  0
   -0.9431    0.0523   -2.0745 N   0  0  0  0  0  0  0  0  0  0  0  0
   -0.8540   -0.2635   -3.0226 H   0  0  0  0  0  0  0  0  0  0  0  0
   -1.7853   -0.1870   -1.5568 H   0  0  0  0  0  0  0  0  0  0  0  0
   -3.7046    0.3921    0.0121 C   0  0  0  0  0  0  0  0  0  0  0  0
   -3.1777   -0.6346   -0.4303 O   0  0  0  0  0  0  0  0  0  0  0  0
   -5.0367    0.4493    0.2430 N   0  0  0  0  0  0  0  0  0  0  0  0
   -5.6093   -0.3174   -0.0624 H   0  0  0  0  0  0  0  0  0  0  0  0
   -5.4930    1.3010    0.5142 H   0  0  0  0  0  0  0  0  0  0  0  0
   -2.9788    1.4724    0.3419 N   0  0  0  0  0  0  0  0  0  0  0  0
   -3.4199    2.3209    0.6456 H   0  0  0  0  0  0  0  0  0  0  0  0
   -1.9777    1.4905    0.1260 H   0  0  0  0  0  0  0  0  0  0  0  0
  1  2  1  0  0  0  0
  2  3  1  0  0  0  0
  2  4  1  0  0  0  0
  2  5  1  0  0  0  0
  5  6  1  0  0  0  0
  5  7  1  0  0  0  0
  5  8  1  0  0  0  0
  8  9  1  0  0  0  0
  9 10  1  0  0  0  0
  9 11  1  0  0  0  0
  9 12  1  0  0  0  0
  8 13  1  0  0  0  0
 13 14  1  0  0  0  0
 13 15  1  0  0  0  0
 13 16  1  0  0  0  0
  8 17  1  0  0  0  0
 17 18  1  0  0  0  0
 17 19  1  0  0  0  0
 17 20  1  0  0  0  0
  1 21  1  0  0  0  0
 22 23  2  0  0  0  0
 22 24  4  0  0  0  0
 24 25  1  0  0  0  0
 24 26  1  0  0  0  0
 22 27  4  0  0  0  0
 27 28  1  0  0  0  0
 27 29  1  0  0  0  0
 30 31  4  0  0  0  0
 30 32  4  0  0  0  0
 32 33  1  0  0  0  0
 32 34  1  0  0  0  0
 30 35  4  0  0  0  0
 35 36  1  0  0  0  0
 35 37  1  0  0  0  0
 38 39  4  0  0  0  0
 38 40  4  0  0  0  0
 40 41  1  0  0  0  0
 40 42  1  0  0  0  0
 38 43  4  0  0  0  0
 43 44  1  0  0  0  0
 43 45  1  0  0  0  0
 46 47  4  0  0  0  0
 46 48  4  0  0  0  0
 48 49  1  0  0  0  0
 48 50  1  0  0  0  0
 46 51  4  0  0  0  0
 51 52  1  0  0  0  0
 51 53  1  0  0  0  0
M  CHG  1   1   1
M  END
