 xtb: 6.6.1 (unknown-commit)
          01102415413D

 53 48  0     0  0            999 V2000
    0.2439   -1.8360   -0.1128 O   0  0  0  0  0  0  0  0  0  0  0  0
    0.3558   -0.5971   -0.7828 C   0  0  0  0  0  0  0  0  0  0  0  0
    1.2201   -0.0383   -0.4195 H   0  0  0  0  0  0  0  0  0  0  0  0
    0.4963   -0.7758   -1.8581 H   0  0  0  0  0  0  0  0  0  0  0  0
   -0.9349    0.2026   -0.6135 C   0  0  0  0  0  0  0  0  0  0  0  0
   -1.7698   -0.5029   -0.6402 H   0  0  0  0  0  0  0  0  0  0  0  0
   -1.0336    0.9270   -1.4228 H   0  0  0  0  0  0  0  0  0  0  0  0
   -1.0625    0.9617    0.6606 N   0  0  0  0  0  0  0  0  0  0  0  0
   -0.8652    0.0767    1.8162 C   0  0  0  0  0  0  0  0  0  0  0  0
   -1.5814   -0.7417    1.7471 H   0  0  0  0  0  0  0  0  0  0  0  0
   -1.0344    0.6316    2.7368 H   0  0  0  0  0  0  0  0  0  0  0  0
    0.1448   -0.3240    1.8223 H   0  0  0  0  0  0  0  0  0  0  0  0
   -2.4338    1.5002    0.7020 C   0  0  0  0  0  0  0  0  0  0  0  0
   -3.1433    0.6748    0.6823 H   0  0  0  0  0  0  0  0  0  0  0  0
   -2.5836    2.1447   -0.1625 H   0  0  0  0  0  0  0  0  0  0  0  0
   -2.5786    2.0780    1.6122 H   0  0  0  0  0  0  0  0  0  0  0  0
   -0.1145    2.0858    0.6986 C   0  0  0  0  0  0  0  0  0  0  0  0
   -0.2818    2.7111   -0.1768 H   0  0  0  0  0  0  0  0  0  0  0  0
    0.9157    1.7339    0.7081 H   0  0  0  0  0  0  0  0  0  0  0  0
   -0.2847    2.6747    1.5976 H   0  0  0  0  0  0  0  0  0  0  0  0
    1.1370   -2.1617    0.1146 H   0  0  0  0  0  0  0  0  0  0  0  0
    3.7992    0.8175   -0.0651 C   0  0  0  0  0  0  0  0  0  0  0  0
    2.8855    1.0171    0.7411 O   0  0  0  0  0  0  0  0  0  0  0  0
    4.4831    1.8502   -0.6124 N   0  0  0  0  0  0  0  0  0  0  0  0
    4.3113    2.7745   -0.2593 H   0  0  0  0  0  0  0  0  0  0  0  0
    5.2906    1.7043   -1.1901 H   0  0  0  0  0  0  0  0  0  0  0  0
    4.1287   -0.4173   -0.4735 N   0  0  0  0  0  0  0  0  0  0  0  0
    4.8781   -0.5785   -1.1204 H   0  0  0  0  0  0  0  0  0  0  0  0
    3.6316   -1.2198   -0.0861 H   0  0  0  0  0  0  0  0  0  0  0  0
   -2.0606    3.6294   -2.9013 C   0  0  0  0  0  0  0  0  0  0  0  0
   -1.6089    2.9956   -1.9582 O   0  0  0  0  0  0  0  0  0  0  0  0
   -3.2051    3.2672   -3.5314 N   0  0  0  0  0  0  0  0  0  0  0  0
   -3.6355    2.3952   -3.2806 H   0  0  0  0  0  0  0  0  0  0  0  0
   -3.5174    3.7231   -4.3690 H   0  0  0  0  0  0  0  0  0  0  0  0
   -1.4520    4.7386   -3.3864 N   0  0  0  0  0  0  0  0  0  0  0  0
   -1.8861    5.3230   -4.0771 H   0  0  0  0  0  0  0  0  0  0  0  0
   -0.6655    5.1084   -2.8833 H   0  0  0  0  0  0  0  0  0  0  0  0
   -3.3031   -2.7242    0.3232 C   0  0  0  0  0  0  0  0  0  0  0  0
   -3.2784   -1.5201    0.5507 O   0  0  0  0  0  0  0  0  0  0  0  0
   -4.4286   -3.4622    0.5035 N   0  0  0  0  0  0  0  0  0  0  0  0
   -5.2812   -2.9765    0.7178 H   0  0  0  0  0  0  0  0  0  0  0  0
   -4.4934   -4.4144    0.1936 H   0  0  0  0  0  0  0  0  0  0  0  0
   -2.2160   -3.3937   -0.1174 N   0  0  0  0  0  0  0  0  0  0  0  0
   -2.2182   -4.3937   -0.1999 H   0  0  0  0  0  0  0  0  0  0  0  0
   -1.3254   -2.9108   -0.1486 H   0  0  0  0  0  0  0  0  0  0  0  0
    2.7190   -2.2333    2.1072 C   0  0  0  0  0  0  0  0  0  0  0  0
    2.7025   -2.4262    0.8873 O   0  0  0  0  0  0  0  0  0  0  0  0
    2.5323   -1.0041    2.6302 N   0  0  0  0  0  0  0  0  0  0  0  0
    2.6264   -0.2068    1.9918 H   0  0  0  0  0  0  0  0  0  0  0  0
    2.7147   -0.8384    3.6044 H   0  0  0  0  0  0  0  0  0  0  0  0
    2.8723   -3.2579    2.9721 N   0  0  0  0  0  0  0  0  0  0  0  0
    2.8622   -3.1325    3.9675 H   0  0  0  0  0  0  0  0  0  0  0  0
    2.9533   -4.1883    2.6024 H   0  0  0  0  0  0  0  0  0  0  0  0
  1  2  1  0  0  0  0
  2  3  1  0  0  0  0
  2  4  1  0  0  0  0
  2  5  1  0  0  0  0
  5  6  1  0  0  0  0
  5  7  1  0  0  0  0
  5  8  1  0  0  0  0
  8  9  1  0  0  0  0
  9 10  1  0  0  0  0
  9 11  1  0  0  0  0
  9 12  1  0  0  0  0
  8 13  1  0  0  0  0
 13 14  1  0  0  0  0
 13 15  1  0  0  0  0
 13 16  1  0  0  0  0
  8 17  1  0  0  0  0
 17 18  1  0  0  0  0
 17 19  1  0  0  0  0
 17 20  1  0  0  0  0
  1 21  1  0  0  0  0
 22 23  4  0  0  0  0
 22 24  4  0  0  0  0
 24 25  1  0  0  0  0
 24 26  1  0  0  0  0
 22 27  4  0  0  0  0
 27 28  1  0  0  0  0
 27 29  1  0  0  0  0
 30 31  2  0  0  0  0
 30 32  4  0  0  0  0
 32 33  1  0  0  0  0
 32 34  1  0  0  0  0
 30 35  4  0  0  0  0
 35 36  1  0  0  0  0
 35 37  1  0  0  0  0
 38 39  2  0  0  0  0
 38 40  1  0  0  0  0
 40 41  1  0  0  0  0
 40 42  1  0  0  0  0
 38 43  4  0  0  0  0
 43 44  1  0  0  0  0
 43 45  1  0  0  0  0
 46 47  4  0  0  0  0
 46 48  4  0  0  0  0
 48 49  1  0  0  0  0
 48 50  1  0  0  0  0
 46 51  4  0  0  0  0
 51 52  1  0  0  0  0
 51 53  1  0  0  0  0
M  CHG  1   1   1
M  END
