  53

 O          1.6686255836       -2.4496857039        0.9373705590
 C          2.8296901552       -1.7886462515        0.5281534398
 H          3.5251862831       -1.8459888148        1.3709320125
 H          3.2973142881       -2.3020651664       -0.3228586450
 C          2.6334806586       -0.3247680446        0.0944804182
 H          2.0459802821       -0.2812156379       -0.8263580977
 H          3.6258325896        0.0842350476       -0.1077625286
 N          1.9524263477        0.5610445361        1.0767319559
 C          0.5088618467        0.2725707109        1.1001511346
 H          0.1135061968        0.4391188004        0.1033874690
 H          0.0235632634        0.9646456208        1.7891347644
 H          0.3352741624       -0.7543531767        1.4077879824
 C          2.1199238043        1.9576236287        0.6368578086
 H          1.7938642296        2.0425151770       -0.3978467036
 H          3.1615186573        2.2609335620        0.7171221134
 H          1.4975150003        2.5993408195        1.2607321534
 C          2.4894701779        0.4174286934        2.4364096520
 H          3.5665643530        0.5764325967        2.4397656864
 H          2.2653210829       -0.5741776614        2.8228250250
 H          2.0138469296        1.1595302253        3.0756448662
 H          1.0837775674       -2.6285625565        0.1616753139
 C          0.0753616784       -4.6137309717       -0.9259310630
 O          0.0363905246       -3.3847719770       -1.0021419710
 N         -0.6128575022       -5.3989966719       -1.7845048786
 H         -1.0500232844       -4.9670122243       -2.5798728527
 H         -0.4895433474       -6.3952462216       -1.8023092061
 N          0.7920099759       -5.2413537311        0.0276248993
 H          0.7726548855       -6.2380977518        0.1418127077
 H          1.2402252247       -4.6797504638        0.7345568590
 C         -1.3634801445        3.3410685524        2.4271273789
 O         -0.2542780788        2.8214650476        2.4793111887
 N         -2.3741601813        2.8493221743        1.6804010236
 H         -2.2300396018        2.0867359386        1.0302999858
 H         -3.2381562207        3.3537045772        1.5989041154
 N         -1.6451753810        4.4735039424        3.1255808401
 H         -2.5844560626        4.8156811395        3.2169911715
 H         -0.9667609434        4.7896520916        3.7957977044
 C          0.0909061009        2.1093282661       -2.5773226686
 O          0.6416902421        1.1236848844       -2.0773520145
 N          0.7500112008        2.9027302784       -3.4618248493
 H          1.6248697527        2.5722499378       -3.8293466928
 H          0.2689262442        3.6154828544       -3.9800385528
 N         -1.1491900910        2.4795638868       -2.2339654387
 H         -1.5946395321        3.2758621040       -2.6504332146
 H         -1.6701087961        1.9137243595       -1.5560599721
 C         -2.2181584672       -0.4138542449       -0.5957540644
 O         -2.4051784728        0.7928658386       -0.4100841189
 N         -2.9092982398       -1.3430402325        0.1118926135
 H         -3.7032647172       -1.0366117489        0.6460810944
 H         -2.8527956260       -2.3140964572       -0.1365611909
 N         -1.3250547967       -0.8839349137       -1.4836631860
 H         -1.0311838999       -1.8499402081       -1.4499010416
 H         -0.6512445900       -0.2251224137       -1.8663282439
