 xtb: 6.6.1 (unknown-commit)
          01102418293D

 53 48  0     0  0            999 V2000
    1.6686   -2.4497    0.9374 O   0  0  0  0  0  0  0  0  0  0  0  0
    2.8297   -1.7887    0.5281 C   0  0  0  0  0  0  0  0  0  0  0  0
    3.5252   -1.8460    1.3709 H   0  0  0  0  0  0  0  0  0  0  0  0
    3.2973   -2.3021   -0.3229 H   0  0  0  0  0  0  0  0  0  0  0  0
    2.6335   -0.3248    0.0945 C   0  0  0  0  0  0  0  0  0  0  0  0
    2.0460   -0.2812   -0.8264 H   0  0  0  0  0  0  0  0  0  0  0  0
    3.6258    0.0842   -0.1078 H   0  0  0  0  0  0  0  0  0  0  0  0
    1.9524    0.5610    1.0767 N   0  0  0  0  0  0  0  0  0  0  0  0
    0.5089    0.2726    1.1001 C   0  0  0  0  0  0  0  0  0  0  0  0
    0.1135    0.4391    0.1034 H   0  0  0  0  0  0  0  0  0  0  0  0
    0.0236    0.9646    1.7891 H   0  0  0  0  0  0  0  0  0  0  0  0
    0.3353   -0.7544    1.4078 H   0  0  0  0  0  0  0  0  0  0  0  0
    2.1199    1.9576    0.6368 C   0  0  0  0  0  0  0  0  0  0  0  0
    1.7939    2.0425   -0.3979 H   0  0  0  0  0  0  0  0  0  0  0  0
    3.1615    2.2609    0.7171 H   0  0  0  0  0  0  0  0  0  0  0  0
    1.4975    2.5993    1.2607 H   0  0  0  0  0  0  0  0  0  0  0  0
    2.4895    0.4174    2.4364 C   0  0  0  0  0  0  0  0  0  0  0  0
    3.5666    0.5764    2.4398 H   0  0  0  0  0  0  0  0  0  0  0  0
    2.2653   -0.5742    2.8228 H   0  0  0  0  0  0  0  0  0  0  0  0
    2.0139    1.1595    3.0756 H   0  0  0  0  0  0  0  0  0  0  0  0
    1.0838   -2.6286    0.1617 H   0  0  0  0  0  0  0  0  0  0  0  0
    0.0753   -4.6137   -0.9259 C   0  0  0  0  0  0  0  0  0  0  0  0
    0.0364   -3.3848   -1.0021 O   0  0  0  0  0  0  0  0  0  0  0  0
   -0.6129   -5.3990   -1.7845 N   0  0  0  0  0  0  0  0  0  0  0  0
   -1.0501   -4.9670   -2.5799 H   0  0  0  0  0  0  0  0  0  0  0  0
   -0.4896   -6.3952   -1.8023 H   0  0  0  0  0  0  0  0  0  0  0  0
    0.7920   -5.2414    0.0276 N   0  0  0  0  0  0  0  0  0  0  0  0
    0.7726   -6.2381    0.1418 H   0  0  0  0  0  0  0  0  0  0  0  0
    1.2402   -4.6798    0.7346 H   0  0  0  0  0  0  0  0  0  0  0  0
   -1.3635    3.3411    2.4271 C   0  0  0  0  0  0  0  0  0  0  0  0
   -0.2543    2.8215    2.4793 O   0  0  0  0  0  0  0  0  0  0  0  0
   -2.3741    2.8493    1.6804 N   0  0  0  0  0  0  0  0  0  0  0  0
   -2.2300    2.0867    1.0303 H   0  0  0  0  0  0  0  0  0  0  0  0
   -3.2381    3.3537    1.5989 H   0  0  0  0  0  0  0  0  0  0  0  0
   -1.6451    4.4735    3.1256 N   0  0  0  0  0  0  0  0  0  0  0  0
   -2.5844    4.8157    3.2170 H   0  0  0  0  0  0  0  0  0  0  0  0
   -0.9667    4.7897    3.7958 H   0  0  0  0  0  0  0  0  0  0  0  0
    0.0909    2.1093   -2.5773 C   0  0  0  0  0  0  0  0  0  0  0  0
    0.6417    1.1237   -2.0774 O   0  0  0  0  0  0  0  0  0  0  0  0
    0.7500    2.9027   -3.4618 N   0  0  0  0  0  0  0  0  0  0  0  0
    1.6249    2.5722   -3.8294 H   0  0  0  0  0  0  0  0  0  0  0  0
    0.2689    3.6155   -3.9800 H   0  0  0  0  0  0  0  0  0  0  0  0
   -1.1492    2.4796   -2.2340 N   0  0  0  0  0  0  0  0  0  0  0  0
   -1.5946    3.2759   -2.6504 H   0  0  0  0  0  0  0  0  0  0  0  0
   -1.6701    1.9137   -1.5561 H   0  0  0  0  0  0  0  0  0  0  0  0
   -2.2182   -0.4138   -0.5957 C   0  0  0  0  0  0  0  0  0  0  0  0
   -2.4052    0.7929   -0.4101 O   0  0  0  0  0  0  0  0  0  0  0  0
   -2.9093   -1.3430    0.1119 N   0  0  0  0  0  0  0  0  0  0  0  0
   -3.7033   -1.0366    0.6461 H   0  0  0  0  0  0  0  0  0  0  0  0
   -2.8528   -2.3141   -0.1365 H   0  0  0  0  0  0  0  0  0  0  0  0
   -1.3251   -0.8839   -1.4837 N   0  0  0  0  0  0  0  0  0  0  0  0
   -1.0312   -1.8499   -1.4499 H   0  0  0  0  0  0  0  0  0  0  0  0
   -0.6513   -0.2251   -1.8663 H   0  0  0  0  0  0  0  0  0  0  0  0
  1  2  1  0  0  0  0
  2  3  1  0  0  0  0
  2  4  1  0  0  0  0
  2  5  1  0  0  0  0
  5  6  1  0  0  0  0
  5  7  1  0  0  0  0
  5  8  1  0  0  0  0
  8  9  1  0  0  0  0
  9 10  1  0  0  0  0
  9 11  1  0  0  0  0
  9 12  1  0  0  0  0
  8 13  1  0  0  0  0
 13 14  1  0  0  0  0
 13 15  1  0  0  0  0
 13 16  1  0  0  0  0
  8 17  1  0  0  0  0
 17 18  1  0  0  0  0
 17 19  1  0  0  0  0
 17 20  1  0  0  0  0
  1 21  1  0  0  0  0
 22 23  4  0  0  0  0
 22 24  4  0  0  0  0
 24 25  1  0  0  0  0
 24 26  1  0  0  0  0
 22 27  4  0  0  0  0
 27 28  1  0  0  0  0
 27 29  1  0  0  0  0
 30 31  2  0  0  0  0
 30 32  4  0  0  0  0
 32 33  1  0  0  0  0
 32 34  1  0  0  0  0
 30 35  1  0  0  0  0
 35 36  1  0  0  0  0
 35 37  1  0  0  0  0
 38 39  4  0  0  0  0
 38 40  1  0  0  0  0
 40 41  1  0  0  0  0
 40 42  1  0  0  0  0
 38 43  4  0  0  0  0
 43 44  1  0  0  0  0
 43 45  1  0  0  0  0
 46 47  4  0  0  0  0
 46 48  4  0  0  0  0
 48 49  1  0  0  0  0
 48 50  1  0  0  0  0
 46 51  4  0  0  0  0
 51 52  1  0  0  0  0
 51 53  1  0  0  0  0
M  CHG  1   1   1
M  END
