  53

 O          1.7673708831       -1.4678481464        2.3317418807
 C          0.6545725313       -0.6262855720        2.2466355692
 H          0.0647370310       -0.7951765195        3.1506359628
 H          0.9669555980        0.4285425152        2.2490082120
 C         -0.1712584950       -0.8145783649        0.9706875566
 H          0.5024120118       -0.6642526329        0.1237624685
 H         -0.9672184569       -0.0676099849        0.9484659458
 N         -0.8187897088       -2.1446000928        0.7913648062
 C          0.1810611270       -3.2228889620        0.7299056776
 H          0.9457463582       -2.9736945079       -0.0046464766
 H         -0.3017654050       -4.1597907973        0.4589411901
 H          0.6692439920       -3.3324917650        1.6960715353
 C         -1.5595979837       -2.0920989570       -0.4799818752
 H         -0.8748234796       -1.8907934554       -1.3004387475
 H         -2.2986235543       -1.2924951313       -0.4200290975
 H         -2.0646009958       -3.0391592416       -0.6592746304
 C         -1.7765467412       -2.4060137809        1.8770033678
 H         -1.2563126234       -2.4899018576        2.8272096666
 H         -2.3040500251       -3.3384564147        1.6859075286
 H         -2.4926598022       -1.5855281178        1.9164686401
 H          2.2306490937       -1.4378342556        1.4720872544
 C          3.7631580817       -1.1170364057       -0.5734559368
 O          2.6412116770       -1.5506142828       -0.3123064623
 N          4.0827242299        0.1795947976       -0.4159848360
 H          3.3375915969        0.8430771852       -0.2259472053
 H          4.9665383484        0.5369256426       -0.7305068611
 N          4.7420860892       -1.9311131411       -1.0469476719
 H          5.6952582742       -1.6192554074       -1.1009330250
 H          4.5834821554       -2.9231021212       -1.0146699716
 C          1.1226306704        2.5989314393        0.5624933737
 O          1.8467684190        1.9010390546       -0.1535725486
 N          1.6353945820        3.2747898523        1.6204782324
 H          2.6335832434        3.2996863778        1.7323402053
 H          1.0903681430        3.9448122329        2.1318881994
 N         -0.2016910236        2.6745449820        0.3734860232
 H         -0.7744050583        3.2819483252        0.9296299501
 H         -0.6198309998        2.2035101121       -0.4331952527
 C         -0.5226891073        0.6799989184       -2.5724447580
 O         -1.2659322985        1.3327961484       -1.8364017652
 N          0.7771718133        0.5080755228       -2.3007198143
 H          1.1977973441        1.0251860902       -1.5206013397
 H          1.3861624480        0.0265732127       -2.9366460582
 N         -1.0193670266        0.0154896691       -3.6533974146
 H         -0.4013996269       -0.3324178852       -4.3654296242
 H         -1.9564220037        0.2413227948       -3.9408347973
 C         -3.9964957224        0.9661493242        0.4969162697
 O         -3.1844363922        0.1468316517        0.9156896034
 N         -5.0819368553        1.3302587973        1.2284458387
 H         -5.2845525427        0.8119380023        2.0649096454
 H         -5.8233771656        1.8769571059        0.8292439469
 N         -3.8699277063        1.5481713329       -0.7137218272
 H         -4.4626409645        2.3153923761       -0.9755022071
 H         -2.9837716951        1.4500437590       -1.1999334711
