53
 xtb: 6.6.1 (unknown-commit)
O            1.75869348578370       -1.41953157137212        2.30390473630314
C            0.63357446894431       -0.60215837230193        2.22216643648721
H            0.06129370999302       -0.78814147546887        3.14526637872066
H            0.95627476055301        0.43686560508847        2.23821517139746
C           -0.19798260967069       -0.81611686764023        0.95386730733009
H            0.49269451778338       -0.66537380000439        0.11721342441881
H           -0.97762699032438       -0.07090607409181        0.94214878681530
N           -0.83133167816533       -2.15730276383741        0.79528182376588
C            0.18232320056266       -3.22325266337286        0.74329852075272
H            0.94411941940337       -2.97403299350264       -0.00292369923960
H           -0.29849656493588       -4.16269615364971        0.46731112626325
H            0.67145720917507       -3.32700914614568        1.69965289556894
C           -1.57809939654924       -2.12997459336697       -0.47348895474852
H           -0.88224835387647       -1.90220311076873       -1.30037641447608
H           -2.30703757433259       -1.30613730951392       -0.41990381610121
H           -2.06659550802679       -3.05273591059223       -0.65308956379018
C           -1.78007111175160       -2.41515483492927        1.88846431594710
H           -1.25585601995573       -2.48682040547076        2.83022762912818
H           -2.30182785167803       -3.34382575604930        1.69360073127976
H           -2.49673862943965       -1.59072813556040        1.91741010728949
H            2.22628027675319       -1.42655831101393        1.46391037321920
C            3.74619255832333       -1.12410028235000       -0.60153551652449
O            2.61399588843412       -1.54185083513970       -0.34886338759413
N            4.08975134892742        0.16258410208579       -0.42181221737273
H            3.34323034730778        0.84145456278620       -0.22329199551120
H            4.97006118543878        0.52943042105598       -0.73078858597129
N            4.70615286595141       -1.94769363898828       -1.09870970209359
H            5.68712838862760       -1.62819965200551       -1.11402920578031
H            4.56909062582120       -2.92696731697957       -1.03325729913199
C            1.16703772620166        2.63465477160412        0.57488914873834
O            1.88970472377962        1.92494164944347       -0.13074803183846
N            1.69282923743760        3.32923404700637        1.61858070387205
H            2.64905805243335        3.31178086782627        1.73164707869674
H            1.10726297352177        3.96111019964971        2.13066446833705
N           -0.15490280995300        2.71648706614142        0.39359524102945
H           -0.75947441757172        3.29869467085410        0.93147850147641
H           -0.60885269971218        2.21313957810917       -0.42602011010602
C           -0.50402397907893        0.67918261051557       -2.52455484876292
O           -1.23571246353153        1.35205382841793       -1.79021115054122
N            0.80187230635969        0.52327940007412       -2.26524039884780
H            1.20617372022977        1.03086520451404       -1.51309790788260
H            1.39026204640657        0.02177577827815       -2.92277460243830
N           -1.01293844908769       -0.02013980140849       -3.57531958616105
H           -0.40155149316814       -0.34406688159361       -4.34515211152187
H           -1.95532803335046        0.23072676991219       -3.91885740585730
C           -4.02181562800105        0.93620520730259        0.47272226013350
O           -3.22854109989626        0.09796946198191        0.88890559536978
N           -5.12758195648457        1.28276026619124        1.18234666352741
H           -5.30295245349636        0.79423822015963        2.04796464285467
H           -5.83195788304314        1.86828824947343        0.81567504601117
N           -3.86333985437209        1.54484673582226       -0.72235751851759
H           -4.45801520709024        2.31713595237068       -0.97661850319548
H           -2.97833287550295        1.45188192966789       -1.19631551669341
