 xtb: 6.6.1 (unknown-commit)
          01102418263D

 53 48  0     0  0            999 V2000
    1.7674   -1.4679    2.3317 O   0  0  0  0  0  0  0  0  0  0  0  0
    0.6546   -0.6263    2.2466 C   0  0  0  0  0  0  0  0  0  0  0  0
    0.0647   -0.7952    3.1506 H   0  0  0  0  0  0  0  0  0  0  0  0
    0.9670    0.4285    2.2490 H   0  0  0  0  0  0  0  0  0  0  0  0
   -0.1713   -0.8146    0.9707 C   0  0  0  0  0  0  0  0  0  0  0  0
    0.5024   -0.6643    0.1238 H   0  0  0  0  0  0  0  0  0  0  0  0
   -0.9672   -0.0676    0.9485 H   0  0  0  0  0  0  0  0  0  0  0  0
   -0.8188   -2.1446    0.7914 N   0  0  0  0  0  0  0  0  0  0  0  0
    0.1810   -3.2229    0.7299 C   0  0  0  0  0  0  0  0  0  0  0  0
    0.9457   -2.9737   -0.0046 H   0  0  0  0  0  0  0  0  0  0  0  0
   -0.3018   -4.1598    0.4589 H   0  0  0  0  0  0  0  0  0  0  0  0
    0.6692   -3.3325    1.6961 H   0  0  0  0  0  0  0  0  0  0  0  0
   -1.5596   -2.0921   -0.4800 C   0  0  0  0  0  0  0  0  0  0  0  0
   -0.8748   -1.8908   -1.3004 H   0  0  0  0  0  0  0  0  0  0  0  0
   -2.2986   -1.2925   -0.4200 H   0  0  0  0  0  0  0  0  0  0  0  0
   -2.0646   -3.0391   -0.6593 H   0  0  0  0  0  0  0  0  0  0  0  0
   -1.7766   -2.4060    1.8770 C   0  0  0  0  0  0  0  0  0  0  0  0
   -1.2563   -2.4899    2.8272 H   0  0  0  0  0  0  0  0  0  0  0  0
   -2.3041   -3.3384    1.6859 H   0  0  0  0  0  0  0  0  0  0  0  0
   -2.4927   -1.5855    1.9165 H   0  0  0  0  0  0  0  0  0  0  0  0
    2.2306   -1.4378    1.4721 H   0  0  0  0  0  0  0  0  0  0  0  0
    3.7632   -1.1171   -0.5735 C   0  0  0  0  0  0  0  0  0  0  0  0
    2.6412   -1.5506   -0.3123 O   0  0  0  0  0  0  0  0  0  0  0  0
    4.0827    0.1796   -0.4160 N   0  0  0  0  0  0  0  0  0  0  0  0
    3.3376    0.8431   -0.2260 H   0  0  0  0  0  0  0  0  0  0  0  0
    4.9665    0.5369   -0.7305 H   0  0  0  0  0  0  0  0  0  0  0  0
    4.7421   -1.9311   -1.0470 N   0  0  0  0  0  0  0  0  0  0  0  0
    5.6952   -1.6193   -1.1010 H   0  0  0  0  0  0  0  0  0  0  0  0
    4.5835   -2.9231   -1.0147 H   0  0  0  0  0  0  0  0  0  0  0  0
    1.1226    2.5989    0.5625 C   0  0  0  0  0  0  0  0  0  0  0  0
    1.8468    1.9010   -0.1536 O   0  0  0  0  0  0  0  0  0  0  0  0
    1.6354    3.2748    1.6205 N   0  0  0  0  0  0  0  0  0  0  0  0
    2.6336    3.2997    1.7323 H   0  0  0  0  0  0  0  0  0  0  0  0
    1.0904    3.9448    2.1319 H   0  0  0  0  0  0  0  0  0  0  0  0
   -0.2017    2.6745    0.3735 N   0  0  0  0  0  0  0  0  0  0  0  0
   -0.7744    3.2820    0.9296 H   0  0  0  0  0  0  0  0  0  0  0  0
   -0.6198    2.2035   -0.4332 H   0  0  0  0  0  0  0  0  0  0  0  0
   -0.5227    0.6800   -2.5724 C   0  0  0  0  0  0  0  0  0  0  0  0
   -1.2659    1.3328   -1.8364 O   0  0  0  0  0  0  0  0  0  0  0  0
    0.7772    0.5081   -2.3007 N   0  0  0  0  0  0  0  0  0  0  0  0
    1.1978    1.0252   -1.5206 H   0  0  0  0  0  0  0  0  0  0  0  0
    1.3862    0.0266   -2.9367 H   0  0  0  0  0  0  0  0  0  0  0  0
   -1.0194    0.0155   -3.6534 N   0  0  0  0  0  0  0  0  0  0  0  0
   -0.4014   -0.3324   -4.3654 H   0  0  0  0  0  0  0  0  0  0  0  0
   -1.9564    0.2413   -3.9408 H   0  0  0  0  0  0  0  0  0  0  0  0
   -3.9965    0.9662    0.4969 C   0  0  0  0  0  0  0  0  0  0  0  0
   -3.1844    0.1468    0.9157 O   0  0  0  0  0  0  0  0  0  0  0  0
   -5.0819    1.3303    1.2285 N   0  0  0  0  0  0  0  0  0  0  0  0
   -5.2845    0.8120    2.0649 H   0  0  0  0  0  0  0  0  0  0  0  0
   -5.8234    1.8770    0.8293 H   0  0  0  0  0  0  0  0  0  0  0  0
   -3.8699    1.5482   -0.7137 N   0  0  0  0  0  0  0  0  0  0  0  0
   -4.4626    2.3154   -0.9755 H   0  0  0  0  0  0  0  0  0  0  0  0
   -2.9838    1.4501   -1.1999 H   0  0  0  0  0  0  0  0  0  0  0  0
  1  2  1  0  0  0  0
  2  3  1  0  0  0  0
  2  4  1  0  0  0  0
  2  5  1  0  0  0  0
  5  6  1  0  0  0  0
  5  7  1  0  0  0  0
  5  8  1  0  0  0  0
  8  9  1  0  0  0  0
  9 10  1  0  0  0  0
  9 11  1  0  0  0  0
  9 12  1  0  0  0  0
  8 13  1  0  0  0  0
 13 14  1  0  0  0  0
 13 15  1  0  0  0  0
 13 16  1  0  0  0  0
  8 17  1  0  0  0  0
 17 18  1  0  0  0  0
 17 19  1  0  0  0  0
 17 20  1  0  0  0  0
  1 21  1  0  0  0  0
 22 23  4  0  0  0  0
 22 24  4  0  0  0  0
 24 25  1  0  0  0  0
 24 26  1  0  0  0  0
 22 27  1  0  0  0  0
 27 28  1  0  0  0  0
 27 29  1  0  0  0  0
 30 31  4  0  0  0  0
 30 32  4  0  0  0  0
 32 33  1  0  0  0  0
 32 34  1  0  0  0  0
 30 35  4  0  0  0  0
 35 36  1  0  0  0  0
 35 37  1  0  0  0  0
 38 39  4  0  0  0  0
 38 40  4  0  0  0  0
 40 41  1  0  0  0  0
 40 42  1  0  0  0  0
 38 43  1  0  0  0  0
 43 44  1  0  0  0  0
 43 45  1  0  0  0  0
 46 47  2  0  0  0  0
 46 48  1  0  0  0  0
 48 49  1  0  0  0  0
 48 50  1  0  0  0  0
 46 51  4  0  0  0  0
 51 52  1  0  0  0  0
 51 53  1  0  0  0  0
M  CHG  1   1   1
M  END
