  53

 O         -2.8357353604       -1.9865245298        0.4561395001
 C         -1.7672011731       -2.2360262955       -0.4130702925
 H         -1.5757775994       -3.3104929661       -0.3686553187
 H         -2.0480874138       -1.9953206296       -1.4481065407
 C         -0.5008848896       -1.4236314018       -0.1156611235
 H         -0.7504980726       -0.3628088897       -0.1520176283
 H          0.2450726650       -1.6502965896       -0.8811796663
 N          0.1486707933       -1.6613875866        1.2032247246
 C         -0.7183400725       -1.1926745447        2.2955203381
 H         -0.9078189828       -0.1277188384        2.1615611114
 H         -0.2266375063       -1.3520213817        3.2530775220
 H         -1.6644232098       -1.7299256949        2.2769637168
 C          1.3979719290       -0.8801031656        1.2249201483
 H          1.1614578417        0.1696469276        1.0673632496
 H          2.0473700437       -1.2288146427        0.4218643953
 H          1.8964076632       -1.0009431814        2.1836391491
 C          0.4818943441       -3.0825785911        1.3695662931
 H          1.0738426036       -3.4038091504        0.5133406680
 H         -0.4224888853       -3.6813274954        1.4433194809
 H          1.0649866079       -3.2197852302        2.2782551790
 H         -3.0741756555       -1.0302366279        0.3955301717
 C         -0.4937774062        2.1465222572       -0.4907522070
 O         -0.1845896565        1.7378121777        0.6355060204
 N         -1.7879549346        2.3080728615       -0.8447907671
 H         -2.4951816574        1.8606269297       -0.2706342637
 H         -2.0278818671        2.5159744543       -1.7977869755
 N          0.4442259456        2.4659339526       -1.3998580778
 H          0.1988227696        2.7662452547       -2.3249647395
 H          1.4164451133        2.2345904614       -1.1963771345
 C          3.3322159791        2.1567761693        0.4712497908
 O          3.0153870033        1.6341647649       -0.5995182227
 N          4.6334321428        2.3556794961        0.7966703519
 H          5.3301374313        2.1840988092        0.0937776004
 H          4.9009806112        2.8875050570        1.6046579566
 N          2.4159347031        2.5163809156        1.3844704141
 H          2.6715031336        2.9817076505        2.2353712911
 H          1.4278811473        2.3458977998        1.1845237423
 C          3.0454638475       -1.8990127884       -2.1955639766
 O          2.2237252183       -2.2343405497       -1.3480984732
 N          3.4037124055       -2.7410913266       -3.2013445024
 H          3.0872984167       -3.6932594822       -3.1511265298
 H          4.1808277170       -2.5398497750       -3.8040910810
 N          3.6431505121       -0.6905990116       -2.2002701358
 H          4.2279482075       -0.4176945171       -2.9693489609
 H          3.3386179469        0.0449716688       -1.5717208259
 C         -4.8788435905        0.6239536027        0.7554264675
 O         -3.6984932822        0.5793408198        0.4048488172
 N         -5.5742453935       -0.4939444827        1.0420361657
 H         -5.1229629727       -1.3867644546        0.9307128787
 H         -6.5464607433       -0.4716963139        1.2888906487
 N         -5.5414132655        1.7948902589        0.8637888804
 H         -6.4839804778        1.8459960831        1.2040331856
 H         -5.0379240994        2.6528294157        0.7240118820
