 xtb: 6.6.1 (unknown-commit)
          01102418253D

 53 48  0     0  0            999 V2000
   -2.8357   -1.9865    0.4562 O   0  0  0  0  0  0  0  0  0  0  0  0
   -1.7672   -2.2360   -0.4131 C   0  0  0  0  0  0  0  0  0  0  0  0
   -1.5758   -3.3105   -0.3686 H   0  0  0  0  0  0  0  0  0  0  0  0
   -2.0481   -1.9953   -1.4481 H   0  0  0  0  0  0  0  0  0  0  0  0
   -0.5009   -1.4236   -0.1157 C   0  0  0  0  0  0  0  0  0  0  0  0
   -0.7505   -0.3628   -0.1520 H   0  0  0  0  0  0  0  0  0  0  0  0
    0.2451   -1.6503   -0.8812 H   0  0  0  0  0  0  0  0  0  0  0  0
    0.1487   -1.6614    1.2032 N   0  0  0  0  0  0  0  0  0  0  0  0
   -0.7183   -1.1927    2.2955 C   0  0  0  0  0  0  0  0  0  0  0  0
   -0.9078   -0.1277    2.1616 H   0  0  0  0  0  0  0  0  0  0  0  0
   -0.2266   -1.3520    3.2531 H   0  0  0  0  0  0  0  0  0  0  0  0
   -1.6644   -1.7299    2.2770 H   0  0  0  0  0  0  0  0  0  0  0  0
    1.3980   -0.8801    1.2249 C   0  0  0  0  0  0  0  0  0  0  0  0
    1.1615    0.1696    1.0674 H   0  0  0  0  0  0  0  0  0  0  0  0
    2.0474   -1.2288    0.4219 H   0  0  0  0  0  0  0  0  0  0  0  0
    1.8964   -1.0009    2.1836 H   0  0  0  0  0  0  0  0  0  0  0  0
    0.4819   -3.0826    1.3696 C   0  0  0  0  0  0  0  0  0  0  0  0
    1.0738   -3.4038    0.5133 H   0  0  0  0  0  0  0  0  0  0  0  0
   -0.4225   -3.6813    1.4433 H   0  0  0  0  0  0  0  0  0  0  0  0
    1.0650   -3.2198    2.2783 H   0  0  0  0  0  0  0  0  0  0  0  0
   -3.0742   -1.0302    0.3955 H   0  0  0  0  0  0  0  0  0  0  0  0
   -0.4938    2.1465   -0.4908 C   0  0  0  0  0  0  0  0  0  0  0  0
   -0.1846    1.7378    0.6355 O   0  0  0  0  0  0  0  0  0  0  0  0
   -1.7879    2.3081   -0.8448 N   0  0  0  0  0  0  0  0  0  0  0  0
   -2.4952    1.8606   -0.2706 H   0  0  0  0  0  0  0  0  0  0  0  0
   -2.0279    2.5160   -1.7978 H   0  0  0  0  0  0  0  0  0  0  0  0
    0.4442    2.4659   -1.3999 N   0  0  0  0  0  0  0  0  0  0  0  0
    0.1988    2.7662   -2.3250 H   0  0  0  0  0  0  0  0  0  0  0  0
    1.4165    2.2346   -1.1964 H   0  0  0  0  0  0  0  0  0  0  0  0
    3.3322    2.1568    0.4712 C   0  0  0  0  0  0  0  0  0  0  0  0
    3.0154    1.6341   -0.5995 O   0  0  0  0  0  0  0  0  0  0  0  0
    4.6334    2.3557    0.7967 N   0  0  0  0  0  0  0  0  0  0  0  0
    5.3301    2.1841    0.0938 H   0  0  0  0  0  0  0  0  0  0  0  0
    4.9010    2.8875    1.6046 H   0  0  0  0  0  0  0  0  0  0  0  0
    2.4160    2.5164    1.3845 N   0  0  0  0  0  0  0  0  0  0  0  0
    2.6715    2.9817    2.2354 H   0  0  0  0  0  0  0  0  0  0  0  0
    1.4279    2.3459    1.1845 H   0  0  0  0  0  0  0  0  0  0  0  0
    3.0454   -1.8990   -2.1956 C   0  0  0  0  0  0  0  0  0  0  0  0
    2.2237   -2.2344   -1.3481 O   0  0  0  0  0  0  0  0  0  0  0  0
    3.4037   -2.7411   -3.2014 N   0  0  0  0  0  0  0  0  0  0  0  0
    3.0873   -3.6933   -3.1511 H   0  0  0  0  0  0  0  0  0  0  0  0
    4.1808   -2.5399   -3.8041 H   0  0  0  0  0  0  0  0  0  0  0  0
    3.6431   -0.6906   -2.2003 N   0  0  0  0  0  0  0  0  0  0  0  0
    4.2279   -0.4177   -2.9694 H   0  0  0  0  0  0  0  0  0  0  0  0
    3.3386    0.0450   -1.5717 H   0  0  0  0  0  0  0  0  0  0  0  0
   -4.8788    0.6240    0.7554 C   0  0  0  0  0  0  0  0  0  0  0  0
   -3.6985    0.5794    0.4049 O   0  0  0  0  0  0  0  0  0  0  0  0
   -5.5742   -0.4939    1.0421 N   0  0  0  0  0  0  0  0  0  0  0  0
   -5.1230   -1.3867    0.9307 H   0  0  0  0  0  0  0  0  0  0  0  0
   -6.5465   -0.4717    1.2889 H   0  0  0  0  0  0  0  0  0  0  0  0
   -5.5414    1.7949    0.8638 N   0  0  0  0  0  0  0  0  0  0  0  0
   -6.4840    1.8460    1.2041 H   0  0  0  0  0  0  0  0  0  0  0  0
   -5.0379    2.6529    0.7240 H   0  0  0  0  0  0  0  0  0  0  0  0
  1  2  1  0  0  0  0
  2  3  1  0  0  0  0
  2  4  1  0  0  0  0
  2  5  1  0  0  0  0
  5  6  1  0  0  0  0
  5  7  1  0  0  0  0
  5  8  1  0  0  0  0
  8  9  1  0  0  0  0
  9 10  1  0  0  0  0
  9 11  1  0  0  0  0
  9 12  1  0  0  0  0
  8 13  1  0  0  0  0
 13 14  1  0  0  0  0
 13 15  1  0  0  0  0
 13 16  1  0  0  0  0
  8 17  1  0  0  0  0
 17 18  1  0  0  0  0
 17 19  1  0  0  0  0
 17 20  1  0  0  0  0
  1 21  1  0  0  0  0
 22 23  4  0  0  0  0
 22 24  4  0  0  0  0
 24 25  1  0  0  0  0
 24 26  1  0  0  0  0
 22 27  4  0  0  0  0
 27 28  1  0  0  0  0
 27 29  1  0  0  0  0
 30 31  4  0  0  0  0
 30 32  4  0  0  0  0
 32 33  1  0  0  0  0
 32 34  1  0  0  0  0
 30 35  4  0  0  0  0
 35 36  1  0  0  0  0
 35 37  1  0  0  0  0
 38 39  2  0  0  0  0
 38 40  1  0  0  0  0
 40 41  1  0  0  0  0
 40 42  1  0  0  0  0
 38 43  4  0  0  0  0
 43 44  1  0  0  0  0
 43 45  1  0  0  0  0
 46 47  4  0  0  0  0
 46 48  4  0  0  0  0
 48 49  1  0  0  0  0
 48 50  1  0  0  0  0
 46 51  4  0  0  0  0
 51 52  1  0  0  0  0
 51 53  1  0  0  0  0
M  CHG  1   1   1
M  END
