  53

 O          2.7108313380       -0.9337977951        0.3030809202
 C          3.1059525198        0.3334804624       -0.1271598943
 H          4.0208249283        0.5764291707        0.4211035485
 H          3.3550507378        0.3253202613       -1.1984024495
 C          2.0498086204        1.4361360186        0.0545328077
 H          1.1728607944        1.2208810930       -0.5629526622
 H          2.4960316342        2.3722119132       -0.2873402927
 N          1.5459501807        1.6392289622        1.4387925769
 C          0.6282878182        0.5497277447        1.8172443711
 H         -0.2037320426        0.5368889266        1.1148552784
 H          0.2622634602        0.7399061067        2.8240243512
 H          1.1529819115       -0.4018198523        1.7839873683
 C          0.7804627258        2.8976947335        1.4712458603
 H         -0.0258623534        2.8374552155        0.7420177074
 H          1.4268454167        3.7403202967        1.2349599663
 H          0.3714038173        3.0266238803        2.4719133562
 C          2.6343250757        1.7116547277        2.4238769517
 H          3.3524511137        2.4776094657        2.1371120404
 H          3.1351109619        0.7494014821        2.4965629933
 H          2.2001861039        1.9619640426        3.3917458612
 H          1.9715507181       -1.2426256829       -0.2786776264
 C          1.3421551567       -2.5081271831       -2.3258441586
 O          0.8787642302       -1.7433680654       -1.4720398880
 N          2.6087004704       -2.9754868852       -2.2145431855
 H          3.1169719858       -2.7797663013       -1.3680069711
 H          2.9680194646       -3.6809162917       -2.8313159223
 N          0.6438847604       -2.8950040259       -3.4017834736
 H          1.0582852734       -3.4797318641       -4.1044061863
 H         -0.2939557663       -2.5423540934       -3.5737113740
 C         -0.0328962287        2.5223307590        5.6563259790
 O          0.4147800847        2.2769086130        4.5452529280
 N         -1.2915488550        2.9895135739        5.8400737302
 H         -1.8374230710        3.2277264533        5.0315899621
 H         -1.6218489065        3.2900560822        6.7385942607
 N          0.6961741203        2.3468689257        6.7848673659
 H          0.2940574888        2.4480659633        7.6986193716
 H          1.5953958595        1.9058919241        6.7119839083
 C         -3.0002698202       -2.8387227515       -3.4640655711
 O         -2.0718094310       -2.2218437450       -3.9781600712
 N         -3.6678390457       -3.8091603807       -4.1304056858
 H         -3.4620727686       -3.9368276709       -5.1056818882
 H         -4.5043140546       -4.2269755835       -3.7654039635
 N         -3.4079898569       -2.5893789232       -2.1987994952
 H         -4.0962931559       -3.1573123086       -1.7402532792
 H         -2.8692570628       -1.9351006558       -1.6518529979
 C         -1.5550109522        1.0719047587       -1.6890951303
 O         -0.9482368447        1.5660454245       -0.7434909519
 N         -2.4353276655        1.7951797432       -2.4262482961
 H         -2.6411034031        2.7382923162       -2.1517382825
 H         -2.9650963595        1.3815326587       -3.1709609422
 N         -1.4299701113       -0.2299814682       -2.0323791821
 H         -1.7370203576       -0.5493513870       -2.9430297057
 H         -0.6194588886       -0.7318091351       -1.6718207730
