 xtb: 6.6.1 (unknown-commit)
          01102415363D

 53 48  0     0  0            999 V2000
   -0.8513    0.4768   -2.5481 O   0  0  0  0  0  0  0  0  0  0  0  0
   -0.1653   -0.7076   -2.8215 C   0  0  0  0  0  0  0  0  0  0  0  0
   -0.7695   -1.2586   -3.5475 H   0  0  0  0  0  0  0  0  0  0  0  0
    0.8045   -0.4961   -3.2930 H   0  0  0  0  0  0  0  0  0  0  0  0
    0.1365   -1.5725   -1.5860 C   0  0  0  0  0  0  0  0  0  0  0  0
    0.7381   -1.0029   -0.8707 H   0  0  0  0  0  0  0  0  0  0  0  0
    0.7146   -2.4352   -1.9229 H   0  0  0  0  0  0  0  0  0  0  0  0
   -1.0437   -2.0750   -0.8330 N   0  0  0  0  0  0  0  0  0  0  0  0
   -1.7068   -0.9710   -0.1171 C   0  0  0  0  0  0  0  0  0  0  0  0
   -0.9970   -0.5352    0.5839 H   0  0  0  0  0  0  0  0  0  0  0  0
   -2.5622   -1.3741    0.4212 H   0  0  0  0  0  0  0  0  0  0  0  0
   -2.0319   -0.2147   -0.8275 H   0  0  0  0  0  0  0  0  0  0  0  0
   -0.5693   -3.0419    0.1732 C   0  0  0  0  0  0  0  0  0  0  0  0
    0.1601   -2.5528    0.8169 H   0  0  0  0  0  0  0  0  0  0  0  0
   -0.1097   -3.8993   -0.3137 H   0  0  0  0  0  0  0  0  0  0  0  0
   -1.4217   -3.3759    0.7621 H   0  0  0  0  0  0  0  0  0  0  0  0
   -2.0251   -2.7365   -1.7049 C   0  0  0  0  0  0  0  0  0  0  0  0
   -2.4825   -2.0118   -2.3736 H   0  0  0  0  0  0  0  0  0  0  0  0
   -2.8000   -3.1717   -1.0737 H   0  0  0  0  0  0  0  0  0  0  0  0
   -1.5445   -3.5196   -2.2882 H   0  0  0  0  0  0  0  0  0  0  0  0
   -0.2426    1.0775   -2.0521 H   0  0  0  0  0  0  0  0  0  0  0  0
    4.0055    2.6038    0.3568 C   0  0  0  0  0  0  0  0  0  0  0  0
    3.2537    3.4287    0.8743 O   0  0  0  0  0  0  0  0  0  0  0  0
    5.2742    2.4296    0.8043 N   0  0  0  0  0  0  0  0  0  0  0  0
    5.6311    3.1057    1.4571 H   0  0  0  0  0  0  0  0  0  0  0  0
    5.9401    1.8800    0.2918 H   0  0  0  0  0  0  0  0  0  0  0  0
    3.6077    1.8107   -0.6572 N   0  0  0  0  0  0  0  0  0  0  0  0
    4.1954    1.0793   -1.0117 H   0  0  0  0  0  0  0  0  0  0  0  0
    2.6314    1.8360   -0.9387 H   0  0  0  0  0  0  0  0  0  0  0  0
    0.5527    3.3704   -1.4576 C   0  0  0  0  0  0  0  0  0  0  0  0
    0.8146    2.1634   -1.2961 O   0  0  0  0  0  0  0  0  0  0  0  0
   -0.4088    3.7491   -2.3244 N   0  0  0  0  0  0  0  0  0  0  0  0
   -0.9083    3.0439   -2.8390 H   0  0  0  0  0  0  0  0  0  0  0  0
   -0.6389    4.7136   -2.4773 H   0  0  0  0  0  0  0  0  0  0  0  0
    1.1992    4.3178   -0.7773 N   0  0  0  0  0  0  0  0  0  0  0  0
    1.0000    5.2917   -0.9143 H   0  0  0  0  0  0  0  0  0  0  0  0
    1.9433    4.0513   -0.1216 H   0  0  0  0  0  0  0  0  0  0  0  0
   -4.5646   -3.7336    1.5771 C   0  0  0  0  0  0  0  0  0  0  0  0
   -3.6318   -3.3337    0.8940 O   0  0  0  0  0  0  0  0  0  0  0  0
   -4.7615   -3.3077    2.8475 N   0  0  0  0  0  0  0  0  0  0  0  0
   -4.1658   -2.5866    3.2124 H   0  0  0  0  0  0  0  0  0  0  0  0
   -5.5697   -3.5708    3.3805 H   0  0  0  0  0  0  0  0  0  0  0  0
   -5.4687   -4.6287    1.1132 N   0  0  0  0  0  0  0  0  0  0  0  0
   -6.1802   -5.0222    1.7011 H   0  0  0  0  0  0  0  0  0  0  0  0
   -5.3207   -5.0405    0.2096 H   0  0  0  0  0  0  0  0  0  0  0  0
    1.5633    0.3045    1.8243 C   0  0  0  0  0  0  0  0  0  0  0  0
    1.1654   -0.6901    1.2250 O   0  0  0  0  0  0  0  0  0  0  0  0
    2.4348    0.2140    2.8608 N   0  0  0  0  0  0  0  0  0  0  0  0
    2.6353   -0.6953    3.2381 H   0  0  0  0  0  0  0  0  0  0  0  0
    2.6493    1.0174    3.4235 H   0  0  0  0  0  0  0  0  0  0  0  0
    1.1385    1.5531    1.5149 N   0  0  0  0  0  0  0  0  0  0  0  0
    1.6820    2.3436    1.8309 H   0  0  0  0  0  0  0  0  0  0  0  0
    0.7558    1.6694    0.5836 H   0  0  0  0  0  0  0  0  0  0  0  0
  1  2  1  0  0  0  0
  2  3  1  0  0  0  0
  2  4  1  0  0  0  0
  2  5  1  0  0  0  0
  5  6  1  0  0  0  0
  5  7  1  0  0  0  0
  5  8  1  0  0  0  0
  8  9  1  0  0  0  0
  9 10  1  0  0  0  0
  9 11  1  0  0  0  0
  9 12  1  0  0  0  0
  8 13  1  0  0  0  0
 13 14  1  0  0  0  0
 13 15  1  0  0  0  0
 13 16  1  0  0  0  0
  8 17  1  0  0  0  0
 17 18  1  0  0  0  0
 17 19  1  0  0  0  0
 17 20  1  0  0  0  0
  1 21  1  0  0  0  0
 22 23  2  0  0  0  0
 22 24  4  0  0  0  0
 24 25  1  0  0  0  0
 24 26  1  0  0  0  0
 22 27  4  0  0  0  0
 27 28  1  0  0  0  0
 27 29  1  0  0  0  0
 30 31  4  0  0  0  0
 30 32  4  0  0  0  0
 32 33  1  0  0  0  0
 32 34  1  0  0  0  0
 30 35  4  0  0  0  0
 35 36  1  0  0  0  0
 35 37  1  0  0  0  0
 38 39  2  0  0  0  0
 38 40  4  0  0  0  0
 40 41  1  0  0  0  0
 40 42  1  0  0  0  0
 38 43  4  0  0  0  0
 43 44  1  0  0  0  0
 43 45  1  0  0  0  0
 46 47  2  0  0  0  0
 46 48  4  0  0  0  0
 48 49  1  0  0  0  0
 48 50  1  0  0  0  0
 46 51  4  0  0  0  0
 51 52  1  0  0  0  0
 51 53  1  0  0  0  0
M  CHG  1   1   1
M  END
