 xtb: 6.6.1 (unknown-commit)
          01102418323D

 53 48  0     0  0            999 V2000
    1.0425   -3.7185    1.0377 O   0  0  0  0  0  0  0  0  0  0  0  0
   -0.0590   -3.1985    0.3534 C   0  0  0  0  0  0  0  0  0  0  0  0
    0.1789   -3.0123   -0.6993 H   0  0  0  0  0  0  0  0  0  0  0  0
   -0.8406   -3.9652    0.3894 H   0  0  0  0  0  0  0  0  0  0  0  0
   -0.6725   -1.9441    0.9977 C   0  0  0  0  0  0  0  0  0  0  0  0
   -0.8888   -2.1746    2.0429 H   0  0  0  0  0  0  0  0  0  0  0  0
   -1.6117   -1.7398    0.4759 H   0  0  0  0  0  0  0  0  0  0  0  0
    0.1262   -0.6875    0.9713 N   0  0  0  0  0  0  0  0  0  0  0  0
    1.2757   -0.7164    1.8908 C   0  0  0  0  0  0  0  0  0  0  0  0
    0.9573   -1.0137    2.8874 H   0  0  0  0  0  0  0  0  0  0  0  0
    1.7057    0.2838    1.9263 H   0  0  0  0  0  0  0  0  0  0  0  0
    2.0344   -1.4068    1.5325 H   0  0  0  0  0  0  0  0  0  0  0  0
   -0.7696    0.4045    1.3922 C   0  0  0  0  0  0  0  0  0  0  0  0
   -1.1270    0.2281    2.4043 H   0  0  0  0  0  0  0  0  0  0  0  0
   -1.6173    0.4649    0.7152 H   0  0  0  0  0  0  0  0  0  0  0  0
   -0.2192    1.3438    1.3538 H   0  0  0  0  0  0  0  0  0  0  0  0
    0.6280   -0.3865   -0.3788 C   0  0  0  0  0  0  0  0  0  0  0  0
    1.4223   -1.0803   -0.6459 H   0  0  0  0  0  0  0  0  0  0  0  0
    1.0348    0.6244   -0.3698 H   0  0  0  0  0  0  0  0  0  0  0  0
   -0.1882   -0.4441   -1.0948 H   0  0  0  0  0  0  0  0  0  0  0  0
    1.8480   -3.2631    0.7028 H   0  0  0  0  0  0  0  0  0  0  0  0
    4.0680   -3.3170   -0.2832 C   0  0  0  0  0  0  0  0  0  0  0  0
    3.1602   -2.5086   -0.0851 O   0  0  0  0  0  0  0  0  0  0  0  0
    5.2346   -2.9424   -0.8479 N   0  0  0  0  0  0  0  0  0  0  0  0
    5.3681   -1.9743   -1.0786 H   0  0  0  0  0  0  0  0  0  0  0  0
    5.9942   -3.5818   -0.9904 H   0  0  0  0  0  0  0  0  0  0  0  0
    3.9438   -4.6203    0.0396 N   0  0  0  0  0  0  0  0  0  0  0  0
    4.6850   -5.2808   -0.1041 H   0  0  0  0  0  0  0  0  0  0  0  0
    3.0905   -4.9392    0.4684 H   0  0  0  0  0  0  0  0  0  0  0  0
    1.2353    3.6854    0.7764 C   0  0  0  0  0  0  0  0  0  0  0  0
    1.3933    2.4707    0.7898 O   0  0  0  0  0  0  0  0  0  0  0  0
    2.1495    4.5277    1.3241 N   0  0  0  0  0  0  0  0  0  0  0  0
    3.0238    4.1398    1.6309 H   0  0  0  0  0  0  0  0  0  0  0  0
    2.0943    5.5222    1.2009 H   0  0  0  0  0  0  0  0  0  0  0  0
    0.1535    4.2713    0.2119 N   0  0  0  0  0  0  0  0  0  0  0  0
   -0.0410    5.2408    0.3891 H   0  0  0  0  0  0  0  0  0  0  0  0
   -0.6313    3.6794   -0.0574 H   0  0  0  0  0  0  0  0  0  0  0  0
   -1.5517    2.1752   -1.9649 C   0  0  0  0  0  0  0  0  0  0  0  0
   -1.8761    2.5755   -0.8440 O   0  0  0  0  0  0  0  0  0  0  0  0
   -0.8962    2.9782   -2.8342 N   0  0  0  0  0  0  0  0  0  0  0  0
   -0.5978    3.8843   -2.5197 H   0  0  0  0  0  0  0  0  0  0  0  0
   -0.5503    2.6409   -3.7135 H   0  0  0  0  0  0  0  0  0  0  0  0
   -1.8067    0.9181   -2.3727 N   0  0  0  0  0  0  0  0  0  0  0  0
   -1.6914    0.6542   -3.3343 H   0  0  0  0  0  0  0  0  0  0  0  0
   -2.3731    0.3190   -1.7656 H   0  0  0  0  0  0  0  0  0  0  0  0
   -4.2033   -0.0064   -0.0390 C   0  0  0  0  0  0  0  0  0  0  0  0
   -3.2166   -0.5922   -0.4961 O   0  0  0  0  0  0  0  0  0  0  0  0
   -5.3027   -0.6907    0.3534 N   0  0  0  0  0  0  0  0  0  0  0  0
   -5.3434   -1.6765    0.1651 H   0  0  0  0  0  0  0  0  0  0  0  0
   -6.1435   -0.2266    0.6440 H   0  0  0  0  0  0  0  0  0  0  0  0
   -4.2170    1.3253    0.1335 N   0  0  0  0  0  0  0  0  0  0  0  0
   -5.0255    1.8040    0.4847 H   0  0  0  0  0  0  0  0  0  0  0  0
   -3.4030    1.8720   -0.1504 H   0  0  0  0  0  0  0  0  0  0  0  0
  1  2  1  0  0  0  0
  2  3  1  0  0  0  0
  2  4  1  0  0  0  0
  2  5  1  0  0  0  0
  5  6  1  0  0  0  0
  5  7  1  0  0  0  0
  5  8  1  0  0  0  0
  8  9  1  0  0  0  0
  9 10  1  0  0  0  0
  9 11  1  0  0  0  0
  9 12  1  0  0  0  0
  8 13  1  0  0  0  0
 13 14  1  0  0  0  0
 13 15  1  0  0  0  0
 13 16  1  0  0  0  0
  8 17  1  0  0  0  0
 17 18  1  0  0  0  0
 17 19  1  0  0  0  0
 17 20  1  0  0  0  0
  1 21  1  0  0  0  0
 22 23  4  0  0  0  0
 22 24  4  0  0  0  0
 24 25  1  0  0  0  0
 24 26  1  0  0  0  0
 22 27  4  0  0  0  0
 27 28  1  0  0  0  0
 27 29  1  0  0  0  0
 30 31  2  0  0  0  0
 30 32  1  0  0  0  0
 32 33  1  0  0  0  0
 32 34  1  0  0  0  0
 30 35  4  0  0  0  0
 35 36  1  0  0  0  0
 35 37  1  0  0  0  0
 38 39  4  0  0  0  0
 38 40  4  0  0  0  0
 40 41  1  0  0  0  0
 40 42  1  0  0  0  0
 38 43  4  0  0  0  0
 43 44  1  0  0  0  0
 43 45  1  0  0  0  0
 46 47  4  0  0  0  0
 46 48  4  0  0  0  0
 48 49  1  0  0  0  0
 48 50  1  0  0  0  0
 46 51  4  0  0  0  0
 51 52  1  0  0  0  0
 51 53  1  0  0  0  0
M  CHG  1   1   1
M  END
