 xtb: 6.6.1 (unknown-commit)
          01102418243D

 53 48  0     0  0            999 V2000
    1.7767   -1.0388    2.5024 O   0  0  0  0  0  0  0  0  0  0  0  0
    0.5260   -0.4438    2.2730 C   0  0  0  0  0  0  0  0  0  0  0  0
   -0.0939   -0.7031    3.1331 H   0  0  0  0  0  0  0  0  0  0  0  0
    0.6190    0.6485    2.2457 H   0  0  0  0  0  0  0  0  0  0  0  0
   -0.1225   -0.8533    0.9474 C   0  0  0  0  0  0  0  0  0  0  0  0
    0.6167   -0.7187    0.1539 H   0  0  0  0  0  0  0  0  0  0  0  0
   -0.9833   -0.2087    0.7571 H   0  0  0  0  0  0  0  0  0  0  0  0
   -0.6085   -2.2585    0.8501 N   0  0  0  0  0  0  0  0  0  0  0  0
    0.4899   -3.2132    1.0611 C   0  0  0  0  0  0  0  0  0  0  0  0
    1.2522   -3.0443    0.3020 H   0  0  0  0  0  0  0  0  0  0  0  0
    0.1171   -4.2320    0.9767 H   0  0  0  0  0  0  0  0  0  0  0  0
    0.9341   -3.0675    2.0432 H   0  0  0  0  0  0  0  0  0  0  0  0
   -1.1386   -2.4317   -0.5136 C   0  0  0  0  0  0  0  0  0  0  0  0
   -0.3413   -2.2572   -1.2326 H   0  0  0  0  0  0  0  0  0  0  0  0
   -1.9445   -1.7156   -0.6714 H   0  0  0  0  0  0  0  0  0  0  0  0
   -1.5205   -3.4427   -0.6391 H   0  0  0  0  0  0  0  0  0  0  0  0
   -1.6934   -2.5046    1.8117 C   0  0  0  0  0  0  0  0  0  0  0  0
   -1.3237   -2.4317    2.8308 H   0  0  0  0  0  0  0  0  0  0  0  0
   -2.1000   -3.5026    1.6605 H   0  0  0  0  0  0  0  0  0  0  0  0
   -2.4771   -1.7652    1.6439 H   0  0  0  0  0  0  0  0  0  0  0  0
    2.4022   -0.7258    1.8333 H   0  0  0  0  0  0  0  0  0  0  0  0
    3.2912   -1.4247   -0.7989 C   0  0  0  0  0  0  0  0  0  0  0  0
    2.1379   -1.6259   -1.1691 O   0  0  0  0  0  0  0  0  0  0  0  0
    3.6227   -0.3899    0.0178 N   0  0  0  0  0  0  0  0  0  0  0  0
    2.9971    0.4110    0.0602 H   0  0  0  0  0  0  0  0  0  0  0  0
    4.5974   -0.1805    0.1535 H   0  0  0  0  0  0  0  0  0  0  0  0
    4.2926   -2.2768   -1.1130 N   0  0  0  0  0  0  0  0  0  0  0  0
    5.2394   -2.1339   -0.8132 H   0  0  0  0  0  0  0  0  0  0  0  0
    4.0864   -3.0831   -1.6751 H   0  0  0  0  0  0  0  0  0  0  0  0
    1.4435    2.9492    0.6045 C   0  0  0  0  0  0  0  0  0  0  0  0
    1.8724    1.8427    0.2543 O   0  0  0  0  0  0  0  0  0  0  0  0
    2.1264    3.7039    1.4994 N   0  0  0  0  0  0  0  0  0  0  0  0
    3.0361    3.3994    1.7961 H   0  0  0  0  0  0  0  0  0  0  0  0
    1.8443    4.6397    1.7268 H   0  0  0  0  0  0  0  0  0  0  0  0
    0.2777    3.4325    0.1628 N   0  0  0  0  0  0  0  0  0  0  0  0
   -0.0417    4.3450    0.4314 H   0  0  0  0  0  0  0  0  0  0  0  0
   -0.2749    2.9019   -0.5189 H   0  0  0  0  0  0  0  0  0  0  0  0
   -0.6097    0.9689   -2.2140 C   0  0  0  0  0  0  0  0  0  0  0  0
   -1.1849    1.9135   -1.6644 O   0  0  0  0  0  0  0  0  0  0  0  0
    0.6939    0.7227   -2.0278 N   0  0  0  0  0  0  0  0  0  0  0  0
    1.1613    1.2165   -1.2655 H   0  0  0  0  0  0  0  0  0  0  0  0
    1.1054   -0.1550   -2.3032 H   0  0  0  0  0  0  0  0  0  0  0  0
   -1.2868    0.1119   -3.0268 N   0  0  0  0  0  0  0  0  0  0  0  0
   -0.7761   -0.5007   -3.6384 H   0  0  0  0  0  0  0  0  0  0  0  0
   -2.2050    0.3914   -3.3282 H   0  0  0  0  0  0  0  0  0  0  0  0
   -4.0025    0.6118    0.1493 C   0  0  0  0  0  0  0  0  0  0  0  0
   -3.1472   -0.2389    0.3829 O   0  0  0  0  0  0  0  0  0  0  0  0
   -5.2048    0.5974    0.7846 N   0  0  0  0  0  0  0  0  0  0  0  0
   -5.4386   -0.1997    1.3493 H   0  0  0  0  0  0  0  0  0  0  0  0
   -5.9543    1.2019    0.5009 H   0  0  0  0  0  0  0  0  0  0  0  0
   -3.8151    1.5987   -0.7461 N   0  0  0  0  0  0  0  0  0  0  0  0
   -4.4722    2.3549   -0.8156 H   0  0  0  0  0  0  0  0  0  0  0  0
   -2.8753    1.7527   -1.1115 H   0  0  0  0  0  0  0  0  0  0  0  0
  1  2  1  0  0  0  0
  2  3  1  0  0  0  0
  2  4  1  0  0  0  0
  2  5  1  0  0  0  0
  5  6  1  0  0  0  0
  5  7  1  0  0  0  0
  5  8  1  0  0  0  0
  8  9  1  0  0  0  0
  9 10  1  0  0  0  0
  9 11  1  0  0  0  0
  9 12  1  0  0  0  0
  8 13  1  0  0  0  0
 13 14  1  0  0  0  0
 13 15  1  0  0  0  0
 13 16  1  0  0  0  0
  8 17  1  0  0  0  0
 17 18  1  0  0  0  0
 17 19  1  0  0  0  0
 17 20  1  0  0  0  0
  1 21  1  0  0  0  0
 22 23  2  0  0  0  0
 22 24  4  0  0  0  0
 24 25  1  0  0  0  0
 24 26  1  0  0  0  0
 22 27  4  0  0  0  0
 27 28  1  0  0  0  0
 27 29  1  0  0  0  0
 30 31  4  0  0  0  0
 30 32  4  0  0  0  0
 32 33  1  0  0  0  0
 32 34  1  0  0  0  0
 30 35  4  0  0  0  0
 35 36  1  0  0  0  0
 35 37  1  0  0  0  0
 38 39  4  0  0  0  0
 38 40  4  0  0  0  0
 40 41  1  0  0  0  0
 40 42  1  0  0  0  0
 38 43  1  0  0  0  0
 43 44  1  0  0  0  0
 43 45  1  0  0  0  0
 46 47  2  0  0  0  0
 46 48  1  0  0  0  0
 48 49  1  0  0  0  0
 48 50  1  0  0  0  0
 46 51  4  0  0  0  0
 51 52  1  0  0  0  0
 51 53  1  0  0  0  0
M  CHG  1   1   1
M  END
