 xtb: 6.6.1 (unknown-commit)
          01102418333D

 53 48  0     0  0            999 V2000
    2.9754   -0.6233   -0.5697 O   0  0  0  0  0  0  0  0  0  0  0  0
    2.6939    0.5872   -1.2023 C   0  0  0  0  0  0  0  0  0  0  0  0
    3.5236    1.2636   -0.9808 H   0  0  0  0  0  0  0  0  0  0  0  0
    2.6539    0.4573   -2.2922 H   0  0  0  0  0  0  0  0  0  0  0  0
    1.3446    1.2039   -0.7944 C   0  0  0  0  0  0  0  0  0  0  0  0
    0.5458    0.4862   -1.0036 H   0  0  0  0  0  0  0  0  0  0  0  0
    1.1876    2.0977   -1.4009 H   0  0  0  0  0  0  0  0  0  0  0  0
    1.2154    1.5879    0.6373 N   0  0  0  0  0  0  0  0  0  0  0  0
    1.1292    0.3863    1.4857 C   0  0  0  0  0  0  0  0  0  0  0  0
    0.2607   -0.1946    1.1787 H   0  0  0  0  0  0  0  0  0  0  0  0
    1.0224    0.7035    2.5212 H   0  0  0  0  0  0  0  0  0  0  0  0
    2.0297   -0.2106    1.3620 H   0  0  0  0  0  0  0  0  0  0  0  0
   -0.0368    2.3454    0.8019 C   0  0  0  0  0  0  0  0  0  0  0  0
   -0.8648    1.7225    0.4651 H   0  0  0  0  0  0  0  0  0  0  0  0
   -0.0056    3.2622    0.2170 H   0  0  0  0  0  0  0  0  0  0  0  0
   -0.1582    2.5909    1.8557 H   0  0  0  0  0  0  0  0  0  0  0  0
    2.3378    2.4188    1.0976 C   0  0  0  0  0  0  0  0  0  0  0  0
    2.4627    3.2803    0.4444 H   0  0  0  0  0  0  0  0  0  0  0  0
    3.2558    1.8372    1.1124 H   0  0  0  0  0  0  0  0  0  0  0  0
    2.1191    2.7563    2.1104 H   0  0  0  0  0  0  0  0  0  0  0  0
    2.3251   -1.2779   -0.9170 H   0  0  0  0  0  0  0  0  0  0  0  0
    0.2709   -2.8322   -0.9281 C   0  0  0  0  0  0  0  0  0  0  0  0
    0.9629   -2.0590   -1.5994 O   0  0  0  0  0  0  0  0  0  0  0  0
    0.6922   -3.2476    0.2969 N   0  0  0  0  0  0  0  0  0  0  0  0
    1.6525   -3.0757    0.5426 H   0  0  0  0  0  0  0  0  0  0  0  0
    0.2314   -4.0102    0.7607 H   0  0  0  0  0  0  0  0  0  0  0  0
   -0.9091   -3.2880   -1.3584 N   0  0  0  0  0  0  0  0  0  0  0  0
   -1.4952   -3.8429   -0.7619 H   0  0  0  0  0  0  0  0  0  0  0  0
   -1.3299   -2.8576   -2.1882 H   0  0  0  0  0  0  0  0  0  0  0  0
    0.8272    2.9797    4.9957 C   0  0  0  0  0  0  0  0  0  0  0  0
    0.8398    2.5877    3.8369 O   0  0  0  0  0  0  0  0  0  0  0  0
    1.0363    2.1458    6.0429 N   0  0  0  0  0  0  0  0  0  0  0  0
    1.3116    1.1985    5.8553 H   0  0  0  0  0  0  0  0  0  0  0  0
    1.1330    2.4868    6.9817 H   0  0  0  0  0  0  0  0  0  0  0  0
    0.6017    4.2761    5.3171 N   0  0  0  0  0  0  0  0  0  0  0  0
    0.4996    4.5796    6.2680 H   0  0  0  0  0  0  0  0  0  0  0  0
    0.3469    4.9168    4.5871 H   0  0  0  0  0  0  0  0  0  0  0  0
   -1.2424   -1.4989   -4.3858 C   0  0  0  0  0  0  0  0  0  0  0  0
   -2.0162   -1.9368   -3.5301 O   0  0  0  0  0  0  0  0  0  0  0  0
    0.0484   -1.2455   -4.1176 N   0  0  0  0  0  0  0  0  0  0  0  0
    0.4232   -1.5266   -3.2084 H   0  0  0  0  0  0  0  0  0  0  0  0
    0.6897   -0.9958   -4.8479 H   0  0  0  0  0  0  0  0  0  0  0  0
   -1.6832   -1.2039   -5.6317 N   0  0  0  0  0  0  0  0  0  0  0  0
   -1.0619   -0.9266   -6.3689 H   0  0  0  0  0  0  0  0  0  0  0  0
   -2.6347   -1.4251   -5.8647 H   0  0  0  0  0  0  0  0  0  0  0  0
   -2.6986   -0.5523   -0.1152 C   0  0  0  0  0  0  0  0  0  0  0  0
   -1.5277   -0.1898   -0.1058 O   0  0  0  0  0  0  0  0  0  0  0  0
   -3.4422   -0.5584    1.0319 N   0  0  0  0  0  0  0  0  0  0  0  0
   -3.0633   -0.0952    1.8393 H   0  0  0  0  0  0  0  0  0  0  0  0
   -4.4396   -0.6710    0.9971 H   0  0  0  0  0  0  0  0  0  0  0  0
   -3.3355   -0.9697   -1.2229 N   0  0  0  0  0  0  0  0  0  0  0  0
   -4.2620   -1.3526   -1.1672 H   0  0  0  0  0  0  0  0  0  0  0  0
   -2.8080   -1.1640   -2.0687 H   0  0  0  0  0  0  0  0  0  0  0  0
  1  2  1  0  0  0  0
  2  3  1  0  0  0  0
  2  4  1  0  0  0  0
  2  5  1  0  0  0  0
  5  6  1  0  0  0  0
  5  7  1  0  0  0  0
  5  8  1  0  0  0  0
  8  9  1  0  0  0  0
  9 10  1  0  0  0  0
  9 11  1  0  0  0  0
  9 12  1  0  0  0  0
  8 13  1  0  0  0  0
 13 14  1  0  0  0  0
 13 15  1  0  0  0  0
 13 16  1  0  0  0  0
  8 17  1  0  0  0  0
 17 18  1  0  0  0  0
 17 19  1  0  0  0  0
 17 20  1  0  0  0  0
  1 21  1  0  0  0  0
 22 23  4  0  0  0  0
 22 24  1  0  0  0  0
 24 25  1  0  0  0  0
 24 26  1  0  0  0  0
 22 27  4  0  0  0  0
 27 28  1  0  0  0  0
 27 29  1  0  0  0  0
 30 31  2  0  0  0  0
 30 32  4  0  0  0  0
 32 33  1  0  0  0  0
 32 34  1  0  0  0  0
 30 35  4  0  0  0  0
 35 36  1  0  0  0  0
 35 37  1  0  0  0  0
 38 39  4  0  0  0  0
 38 40  4  0  0  0  0
 40 41  1  0  0  0  0
 40 42  1  0  0  0  0
 38 43  4  0  0  0  0
 43 44  1  0  0  0  0
 43 45  1  0  0  0  0
 46 47  2  0  0  0  0
 46 48  1  0  0  0  0
 48 49  1  0  0  0  0
 48 50  1  0  0  0  0
 46 51  4  0  0  0  0
 51 52  1  0  0  0  0
 51 53  1  0  0  0  0
M  CHG  1   1   1
M  END
