 xtb: 6.6.1 (unknown-commit)
          01102418293D

 53 48  0     0  0            999 V2000
   -2.3788   -1.1579    2.0018 O   0  0  0  0  0  0  0  0  0  0  0  0
   -1.0079   -1.3925    2.1568 C   0  0  0  0  0  0  0  0  0  0  0  0
   -0.4900   -0.4824    2.4849 H   0  0  0  0  0  0  0  0  0  0  0  0
   -0.9034   -2.1327    2.9547 H   0  0  0  0  0  0  0  0  0  0  0  0
   -0.2977   -1.8486    0.8737 C   0  0  0  0  0  0  0  0  0  0  0  0
    0.7739   -1.8943    1.0737 H   0  0  0  0  0  0  0  0  0  0  0  0
   -0.4621   -1.1125    0.0824 H   0  0  0  0  0  0  0  0  0  0  0  0
   -0.7400   -3.1562    0.3107 N   0  0  0  0  0  0  0  0  0  0  0  0
    0.2160   -3.5322   -0.7452 C   0  0  0  0  0  0  0  0  0  0  0  0
    1.2113   -3.6623   -0.3265 H   0  0  0  0  0  0  0  0  0  0  0  0
    0.2391   -2.7331   -1.4874 H   0  0  0  0  0  0  0  0  0  0  0  0
   -0.0982   -4.4582   -1.2223 H   0  0  0  0  0  0  0  0  0  0  0  0
   -2.0734   -2.9985   -0.2984 C   0  0  0  0  0  0  0  0  0  0  0  0
   -2.4186   -3.9513   -0.6939 H   0  0  0  0  0  0  0  0  0  0  0  0
   -2.0040   -2.2725   -1.1072 H   0  0  0  0  0  0  0  0  0  0  0  0
   -2.7740   -2.6343    0.4508 H   0  0  0  0  0  0  0  0  0  0  0  0
   -0.7832   -4.2108    1.3338 C   0  0  0  0  0  0  0  0  0  0  0  0
   -0.9654   -5.1746    0.8611 H   0  0  0  0  0  0  0  0  0  0  0  0
   -1.5870   -4.0165    2.0402 H   0  0  0  0  0  0  0  0  0  0  0  0
    0.1651   -4.2543    1.8668 H   0  0  0  0  0  0  0  0  0  0  0  0
   -2.4870   -0.3022    1.5305 H   0  0  0  0  0  0  0  0  0  0  0  0
    3.6412    0.0306    0.3597 C   0  0  0  0  0  0  0  0  0  0  0  0
    2.5554   -0.5636    0.3350 O   0  0  0  0  0  0  0  0  0  0  0  0
    4.7018   -0.4935    1.0221 N   0  0  0  0  0  0  0  0  0  0  0  0
    4.6192   -1.4080    1.4272 H   0  0  0  0  0  0  0  0  0  0  0  0
    5.6096   -0.0673    0.9917 H   0  0  0  0  0  0  0  0  0  0  0  0
    3.8345    1.2019   -0.2593 N   0  0  0  0  0  0  0  0  0  0  0  0
    4.7047    1.6938   -0.1676 H   0  0  0  0  0  0  0  0  0  0  0  0
    3.0441    1.7029   -0.6859 H   0  0  0  0  0  0  0  0  0  0  0  0
    0.5673    2.2654   -0.8173 C   0  0  0  0  0  0  0  0  0  0  0  0
    1.6399    2.4952   -1.3688 O   0  0  0  0  0  0  0  0  0  0  0  0
    0.4218    1.3802    0.1806 N   0  0  0  0  0  0  0  0  0  0  0  0
    1.1707    0.7233    0.3735 H   0  0  0  0  0  0  0  0  0  0  0  0
   -0.5091    1.2065    0.5363 H   0  0  0  0  0  0  0  0  0  0  0  0
   -0.5738    2.9698   -1.1246 N   0  0  0  0  0  0  0  0  0  0  0  0
   -1.4480    2.4860   -0.9823 H   0  0  0  0  0  0  0  0  0  0  0  0
   -0.5168    3.5295   -1.9609 H   0  0  0  0  0  0  0  0  0  0  0  0
    0.2765   -0.2039   -2.6880 C   0  0  0  0  0  0  0  0  0  0  0  0
   -0.5327   -0.8922   -2.0716 O   0  0  0  0  0  0  0  0  0  0  0  0
   -0.1120    0.6081   -3.7036 N   0  0  0  0  0  0  0  0  0  0  0  0
   -1.0436    0.4988   -4.0650 H   0  0  0  0  0  0  0  0  0  0  0  0
    0.5678    1.0608   -4.2883 H   0  0  0  0  0  0  0  0  0  0  0  0
    1.6034   -0.2282   -2.4188 N   0  0  0  0  0  0  0  0  0  0  0  0
    2.1716    0.5218   -2.7786 H   0  0  0  0  0  0  0  0  0  0  0  0
    1.8815   -0.5598   -1.4995 H   0  0  0  0  0  0  0  0  0  0  0  0
   -2.7037    2.2952    1.6958 C   0  0  0  0  0  0  0  0  0  0  0  0
   -2.3075    1.3582    0.9965 O   0  0  0  0  0  0  0  0  0  0  0  0
   -3.6052    2.1048    2.6798 N   0  0  0  0  0  0  0  0  0  0  0  0
   -3.9827    1.1837    2.8198 H   0  0  0  0  0  0  0  0  0  0  0  0
   -3.9748    2.8626    3.2238 H   0  0  0  0  0  0  0  0  0  0  0  0
   -2.2467    3.5491    1.5170 N   0  0  0  0  0  0  0  0  0  0  0  0
   -2.5436    4.3129    2.0959 H   0  0  0  0  0  0  0  0  0  0  0  0
   -1.5369    3.7128    0.8191 H   0  0  0  0  0  0  0  0  0  0  0  0
  1  2  1  0  0  0  0
  2  3  1  0  0  0  0
  2  4  1  0  0  0  0
  2  5  1  0  0  0  0
  5  6  1  0  0  0  0
  5  7  1  0  0  0  0
  5  8  1  0  0  0  0
  8  9  1  0  0  0  0
  9 10  1  0  0  0  0
  9 11  1  0  0  0  0
  9 12  1  0  0  0  0
  8 13  1  0  0  0  0
 13 14  1  0  0  0  0
 13 15  1  0  0  0  0
 13 16  1  0  0  0  0
  8 17  1  0  0  0  0
 17 18  1  0  0  0  0
 17 19  1  0  0  0  0
 17 20  1  0  0  0  0
  1 21  1  0  0  0  0
 22 23  4  0  0  0  0
 22 24  4  0  0  0  0
 24 25  1  0  0  0  0
 24 26  1  0  0  0  0
 22 27  4  0  0  0  0
 27 28  1  0  0  0  0
 27 29  1  0  0  0  0
 30 31  2  0  0  0  0
 30 32  4  0  0  0  0
 32 33  1  0  0  0  0
 32 34  1  0  0  0  0
 30 35  1  0  0  0  0
 35 36  1  0  0  0  0
 35 37  1  0  0  0  0
 38 39  2  0  0  0  0
 38 40  4  0  0  0  0
 40 41  1  0  0  0  0
 40 42  1  0  0  0  0
 38 43  4  0  0  0  0
 43 44  1  0  0  0  0
 43 45  1  0  0  0  0
 46 47  4  0  0  0  0
 46 48  4  0  0  0  0
 48 49  1  0  0  0  0
 48 50  1  0  0  0  0
 46 51  4  0  0  0  0
 51 52  1  0  0  0  0
 51 53  1  0  0  0  0
M  CHG  1   1   1
M  END
