  53

 O          0.7910232116        0.2028199076        3.2131214552
 C         -0.5922010537        0.0434004786        3.0598334289
 H         -0.9791477622       -0.2616284961        4.0349345234
 H         -1.0635163586        1.0035421749        2.8047273727
 C         -0.9986250963       -0.9323069825        1.9523378051
 H         -0.5580598526       -0.6056777736        1.0068891151
 H         -2.0869022311       -0.9146936589        1.8486211973
 N         -0.6179014704       -2.3594158398        2.1494333419
 C          0.8430768721       -2.5085933809        2.2234278930
 H          1.2903862212       -2.1426417226        1.3010398042
 H          1.1041173929       -3.5569267378        2.3567996657
 H          1.2377594637       -1.9255953443        3.0538223253
 C         -1.1249425196       -3.1181184023        0.9914939894
 H         -0.7588328020       -2.6723747856        0.0686094215
 H         -2.2132786154       -3.0609078765        0.9874307753
 H         -0.8078284198       -4.1562524625        1.0558491721
 C         -1.2487635944       -2.8957304110        3.3646331288
 H         -0.8378484653       -2.4188954877        4.2510358269
 H         -1.0699861672       -3.9673534177        3.4315899969
 H         -2.3217349994       -2.7157626727        3.3132135503
 H          1.1601409844        0.4802792630        2.3390788655
 C         -0.3651331807       -0.2065685188       -1.9735293879
 O         -0.9416721696       -0.9160649151       -1.1486512383
 N         -0.8898186386        0.0094151705       -3.2084352179
 H         -1.6758877697       -0.5419456499       -3.5025881047
 H         -0.3709262515        0.5075047422       -3.9086752736
 N          0.8276462707        0.3676275693       -1.7295417017
 H          1.1664652938        1.1103932795       -2.3326551729
 H          1.1200159665        0.4606431446       -0.7580593245
 C          2.0623407052        2.3115128028        0.9891183320
 O          1.6801515926        1.1428675196        0.8515310656
 N          2.1373118600        2.8729096425        2.2162939277
 H          1.9365198573        2.3050201333        3.0232254266
 H          2.5107569637        3.7931648435        2.3587153647
 N          2.4170805453        3.0828197874       -0.0504294187
 H          2.6642291350        4.0459862192        0.0867667087
 H          2.3160472628        2.7591172629       -1.0060018182
 C          3.3716921186        2.0194778298       -3.5034335028
 O          2.4009198521        2.4335912179       -2.8764709999
 N          3.7202578412        0.7108273240       -3.4932930897
 H          3.2330983693        0.0953205459       -2.8641512040
 H          4.5725321873        0.3862343831       -3.9122744773
 N          4.1468346365        2.8403679017       -4.2443665862
 H          4.8777019042        2.4949484995       -4.8392537149
 H          3.8553240266        3.7956566101       -4.3547130219
 C         -4.4410752685       -1.3914026767        0.4089267795
 O         -3.8491010702       -1.8297094390        1.3896518107
 N         -5.7842907625       -1.1911962651        0.4256084036
 H         -6.2970202608       -1.5314631863        1.2197448466
 H         -6.2997006483       -0.9764842675       -0.4084248683
 N         -3.8106482549       -1.0744789810       -0.7430699396
 H         -4.3129325010       -0.6151739934       -1.4809605257
 H         -2.7954818743       -1.0773360812       -0.7955818931
