 xtb: 6.6.1 (unknown-commit)
          01102415433D

 53 48  0     0  0            999 V2000
   -1.0321   -0.3712   -0.4528 O   0  0  0  0  0  0  0  0  0  0  0  0
   -0.5074   -1.6100   -0.8452 C   0  0  0  0  0  0  0  0  0  0  0  0
   -1.2340   -2.0472   -1.5334 H   0  0  0  0  0  0  0  0  0  0  0  0
    0.4380   -1.4640   -1.3858 H   0  0  0  0  0  0  0  0  0  0  0  0
   -0.2068   -2.5490    0.3326 C   0  0  0  0  0  0  0  0  0  0  0  0
    0.1817   -1.9474    1.1622 H   0  0  0  0  0  0  0  0  0  0  0  0
    0.5535   -3.2686    0.0249 H   0  0  0  0  0  0  0  0  0  0  0  0
   -1.3654   -3.3168    0.8664 N   0  0  0  0  0  0  0  0  0  0  0  0
   -0.8918   -4.0880    2.0292 C   0  0  0  0  0  0  0  0  0  0  0  0
   -0.4987   -3.3971    2.7752 H   0  0  0  0  0  0  0  0  0  0  0  0
   -0.1106   -4.7828    1.7273 H   0  0  0  0  0  0  0  0  0  0  0  0
   -1.7167   -4.6503    2.4617 H   0  0  0  0  0  0  0  0  0  0  0  0
   -1.9156   -4.2421   -0.1383 C   0  0  0  0  0  0  0  0  0  0  0  0
   -2.6300   -4.9105    0.3382 H   0  0  0  0  0  0  0  0  0  0  0  0
   -1.1182   -4.8360   -0.5798 H   0  0  0  0  0  0  0  0  0  0  0  0
   -2.4399   -3.6900   -0.9169 H   0  0  0  0  0  0  0  0  0  0  0  0
   -2.4152   -2.3853    1.3072 C   0  0  0  0  0  0  0  0  0  0  0  0
   -1.9879   -1.6954    2.0330 H   0  0  0  0  0  0  0  0  0  0  0  0
   -3.2305   -2.9403    1.7657 H   0  0  0  0  0  0  0  0  0  0  0  0
   -2.7980   -1.8376    0.4494 H   0  0  0  0  0  0  0  0  0  0  0  0
   -0.3463    0.0913    0.0929 H   0  0  0  0  0  0  0  0  0  0  0  0
    4.0432    4.5473   -2.5768 C   0  0  0  0  0  0  0  0  0  0  0  0
    3.3600    3.7553   -1.9413 O   0  0  0  0  0  0  0  0  0  0  0  0
    3.4992    5.4354   -3.4430 N   0  0  0  0  0  0  0  0  0  0  0  0
    2.4988    5.5238   -3.4680 H   0  0  0  0  0  0  0  0  0  0  0  0
    4.0455    6.1621   -3.8684 H   0  0  0  0  0  0  0  0  0  0  0  0
    5.3925    4.5936   -2.4584 N   0  0  0  0  0  0  0  0  0  0  0  0
    5.9568    5.1553   -3.0696 H   0  0  0  0  0  0  0  0  0  0  0  0
    5.8501    3.8707   -1.9319 H   0  0  0  0  0  0  0  0  0  0  0  0
    1.6692    1.5760    0.0099 C   0  0  0  0  0  0  0  0  0  0  0  0
    1.0528    0.7857    0.7396 O   0  0  0  0  0  0  0  0  0  0  0  0
    1.2383    1.8973   -1.2225 N   0  0  0  0  0  0  0  0  0  0  0  0
    0.3585    1.5422   -1.5516 H   0  0  0  0  0  0  0  0  0  0  0  0
    1.7606    2.5687   -1.7648 H   0  0  0  0  0  0  0  0  0  0  0  0
    2.8167    2.1633    0.3873 N   0  0  0  0  0  0  0  0  0  0  0  0
    3.2775    2.7918   -0.2558 H   0  0  0  0  0  0  0  0  0  0  0  0
    3.2301    1.9384    1.2731 H   0  0  0  0  0  0  0  0  0  0  0  0
   -4.0474   -1.1886   -2.1580 C   0  0  0  0  0  0  0  0  0  0  0  0
   -3.5134   -2.2311   -1.8030 O   0  0  0  0  0  0  0  0  0  0  0  0
   -5.1021   -1.1769   -3.0124 N   0  0  0  0  0  0  0  0  0  0  0  0
   -5.5193   -2.0584   -3.2532 H   0  0  0  0  0  0  0  0  0  0  0  0
   -5.6339   -0.3431   -3.1839 H   0  0  0  0  0  0  0  0  0  0  0  0
   -3.6249    0.0193   -1.7153 N   0  0  0  0  0  0  0  0  0  0  0  0
   -3.9762    0.8687   -2.1183 H   0  0  0  0  0  0  0  0  0  0  0  0
   -2.7447    0.0552   -1.2154 H   0  0  0  0  0  0  0  0  0  0  0  0
    0.3300   -0.5957    4.0217 C   0  0  0  0  0  0  0  0  0  0  0  0
   -0.1406   -1.4762    3.3094 O   0  0  0  0  0  0  0  0  0  0  0  0
    0.1265   -0.5896    5.3671 N   0  0  0  0  0  0  0  0  0  0  0  0
   -0.2993   -1.3974    5.7856 H   0  0  0  0  0  0  0  0  0  0  0  0
    0.6298    0.0352    5.9703 H   0  0  0  0  0  0  0  0  0  0  0  0
    1.0785    0.4105    3.5284 N   0  0  0  0  0  0  0  0  0  0  0  0
    1.3026    1.2013    4.1057 H   0  0  0  0  0  0  0  0  0  0  0  0
    1.1006    0.5353    2.5166 H   0  0  0  0  0  0  0  0  0  0  0  0
  1  2  1  0  0  0  0
  2  3  1  0  0  0  0
  2  4  1  0  0  0  0
  2  5  1  0  0  0  0
  5  6  1  0  0  0  0
  5  7  1  0  0  0  0
  5  8  1  0  0  0  0
  8  9  1  0  0  0  0
  9 10  1  0  0  0  0
  9 11  1  0  0  0  0
  9 12  1  0  0  0  0
  8 13  1  0  0  0  0
 13 14  1  0  0  0  0
 13 15  1  0  0  0  0
 13 16  1  0  0  0  0
  8 17  1  0  0  0  0
 17 18  1  0  0  0  0
 17 19  1  0  0  0  0
 17 20  1  0  0  0  0
  1 21  1  0  0  0  0
 22 23  2  0  0  0  0
 22 24  4  0  0  0  0
 24 25  1  0  0  0  0
 24 26  1  0  0  0  0
 22 27  4  0  0  0  0
 27 28  1  0  0  0  0
 27 29  1  0  0  0  0
 30 31  4  0  0  0  0
 30 32  4  0  0  0  0
 32 33  1  0  0  0  0
 32 34  1  0  0  0  0
 30 35  4  0  0  0  0
 35 36  1  0  0  0  0
 35 37  1  0  0  0  0
 38 39  2  0  0  0  0
 38 40  1  0  0  0  0
 40 41  1  0  0  0  0
 40 42  1  0  0  0  0
 38 43  4  0  0  0  0
 43 44  1  0  0  0  0
 43 45  1  0  0  0  0
 46 47  2  0  0  0  0
 46 48  1  0  0  0  0
 48 49  1  0  0  0  0
 48 50  1  0  0  0  0
 46 51  4  0  0  0  0
 51 52  1  0  0  0  0
 51 53  1  0  0  0  0
M  CHG  1   1   1
M  END
