  53

 O          2.2419544876        0.7511154741       -1.1415242187
 C          1.6956157299        2.0323051456       -1.0550969642
 H          2.5088219030        2.7020390422       -0.7619704878
 H          1.3326934904        2.3674831671       -2.0359289454
 C          0.5050443992        2.1446358166       -0.0875970569
 H         -0.2222629995        1.3588107674       -0.3201245858
 H          0.0393825743        3.1212305791       -0.2331759335
 N          0.8134781183        1.9962985903        1.3598074833
 C          1.2996892808        0.6363971084        1.6469805537
 H          0.5302788956       -0.0765011297        1.3545703861
 H          1.4973187716        0.5593723712        2.7142428612
 H          2.2076217009        0.4436553477        1.0812810856
 C         -0.4361224220        2.1951200407        2.1162901256
 H         -1.1701426651        1.4620062578        1.7860479077
 H         -0.8225814852        3.1985735265        1.9516624251
 H         -0.2261293809        2.0578264653        3.1755665923
 C          1.8089833648        2.9730018107        1.8251353624
 H          1.4903894677        3.9835199334        1.5765665232
 H          2.7763769874        2.7766228101        1.3702592356
 H          1.9024773067        2.8725848033        2.9067343890
 H          1.6092575531        0.1703833460       -1.6294282329
 C          0.5466527663       -2.0460180332       -1.7406934198
 O          0.5047696847       -0.9529530662       -2.3212980518
 N          1.4620306533       -2.2806891491       -0.7683110725
 H          2.2096885319       -1.6167411779       -0.6549808128
 H          1.5990706387       -3.2069248650       -0.4058744056
 N         -0.3035542082       -3.0387156190       -2.0309060690
 H         -0.3120883685       -3.8835804523       -1.4894005244
 H         -1.0995523145       -2.8535595598       -2.6462190533
 C          1.5463946845        1.6949891396        5.8714403162
 O          1.3823137233        1.7840745657        4.6620641548
 N          1.1607094185        0.6024758710        6.5717272445
 H          0.7758236671       -0.1799794596        6.0745838300
 H          1.3463495592        0.5003378438        7.5521858691
 N          2.1261819288        2.6801259081        6.5966410088
 H          2.1994204070        2.6371663788        7.5962227081
 H          2.3728292117        3.5390306752        6.1393621618
 C         -1.9605723788       -1.8681517005       -4.8014041224
 O         -2.4017465002       -2.3520707990       -3.7538307989
 N         -0.8952113134       -1.0457311875       -4.8061089022
 H         -0.3602179447       -0.9370520456       -3.9440926402
 H         -0.4745612383       -0.7474833124       -5.6672543425
 N         -2.5471898984       -2.1262558382       -5.9899421681
 H         -2.2430934847       -1.6989583216       -6.8452028381
 H         -3.3821449900       -2.6844042369       -5.9997276188
 C         -2.1140947259       -0.8184789878       -0.4554226099
 O         -1.4764090035       -0.1728862432        0.3711389246
 N         -2.6291221523       -2.0436738698       -0.1670808643
 H         -2.6906490619       -2.3115540202        0.7996813661
 H         -3.2705222937       -2.4714114165       -0.8122308347
 N         -2.3634943012       -0.3722044952       -1.7071897250
 H         -2.6189600260       -1.0500724661       -2.4185748210
 H         -1.8070858100        0.4010117425       -2.0322456583
