 xtb: 6.6.1 (unknown-commit)
          01102415363D

 53 48  0     0  0            999 V2000
    0.5025    1.6039    0.4588 O   0  0  0  0  0  0  0  0  0  0  0  0
   -0.4513    1.9579    1.4130 C   0  0  0  0  0  0  0  0  0  0  0  0
   -0.0928    1.7288    2.4269 H   0  0  0  0  0  0  0  0  0  0  0  0
   -0.5770    3.0426    1.3459 H   0  0  0  0  0  0  0  0  0  0  0  0
   -1.7980    1.2327    1.2636 C   0  0  0  0  0  0  0  0  0  0  0  0
   -2.4461    1.5680    2.0757 H   0  0  0  0  0  0  0  0  0  0  0  0
   -1.6443    0.1526    1.3546 H   0  0  0  0  0  0  0  0  0  0  0  0
   -2.5168    1.4465   -0.0211 N   0  0  0  0  0  0  0  0  0  0  0  0
   -3.8631    0.8608    0.1016 C   0  0  0  0  0  0  0  0  0  0  0  0
   -3.7642   -0.1945    0.3503 H   0  0  0  0  0  0  0  0  0  0  0  0
   -4.3781    0.9714   -0.8510 H   0  0  0  0  0  0  0  0  0  0  0  0
   -4.4276    1.3697    0.8800 H   0  0  0  0  0  0  0  0  0  0  0  0
   -1.8255    0.7511   -1.1209 C   0  0  0  0  0  0  0  0  0  0  0  0
   -0.8153    1.1395   -1.2242 H   0  0  0  0  0  0  0  0  0  0  0  0
   -2.3897    0.9130   -2.0371 H   0  0  0  0  0  0  0  0  0  0  0  0
   -1.7855   -0.3115   -0.8882 H   0  0  0  0  0  0  0  0  0  0  0  0
   -2.6432    2.8709   -0.3608 C   0  0  0  0  0  0  0  0  0  0  0  0
   -1.6646    3.2931   -0.5745 H   0  0  0  0  0  0  0  0  0  0  0  0
   -3.1039    3.4155    0.4612 H   0  0  0  0  0  0  0  0  0  0  0  0
   -3.2657    2.9561   -1.2510 H   0  0  0  0  0  0  0  0  0  0  0  0
    0.7390    0.6505    0.6076 H   0  0  0  0  0  0  0  0  0  0  0  0
    7.0977   -0.8416    1.5470 C   0  0  0  0  0  0  0  0  0  0  0  0
    5.8788   -0.9165    1.4726 O   0  0  0  0  0  0  0  0  0  0  0  0
    7.7547    0.3411    1.4639 N   0  0  0  0  0  0  0  0  0  0  0  0
    7.2150    1.1881    1.4599 H   0  0  0  0  0  0  0  0  0  0  0  0
    8.7389    0.4130    1.6463 H   0  0  0  0  0  0  0  0  0  0  0  0
    7.8792   -1.9351    1.7147 N   0  0  0  0  0  0  0  0  0  0  0  0
    8.8802   -1.8852    1.6653 H   0  0  0  0  0  0  0  0  0  0  0  0
    7.4493   -2.8417    1.6702 H   0  0  0  0  0  0  0  0  0  0  0  0
   -4.8447    2.0274   -3.9338 C   0  0  0  0  0  0  0  0  0  0  0  0
   -4.2602    1.9157   -2.8659 O   0  0  0  0  0  0  0  0  0  0  0  0
   -6.1063    2.5144   -4.0199 N   0  0  0  0  0  0  0  0  0  0  0  0
   -6.5366    2.8809   -3.1899 H   0  0  0  0  0  0  0  0  0  0  0  0
   -6.5457    2.7027   -4.9020 H   0  0  0  0  0  0  0  0  0  0  0  0
   -4.2738    1.6729   -5.1108 N   0  0  0  0  0  0  0  0  0  0  0  0
   -4.7894    1.6673   -5.9715 H   0  0  0  0  0  0  0  0  0  0  0  0
   -3.3804    1.2150   -5.0924 H   0  0  0  0  0  0  0  0  0  0  0  0
   -1.8363   -2.8679    0.8872 C   0  0  0  0  0  0  0  0  0  0  0  0
   -2.3295   -1.7624    0.6958 O   0  0  0  0  0  0  0  0  0  0  0  0
   -0.5347   -3.0399    1.1885 N   0  0  0  0  0  0  0  0  0  0  0  0
    0.0969   -2.2405    1.1314 H   0  0  0  0  0  0  0  0  0  0  0  0
   -0.1383   -3.9620    1.2068 H   0  0  0  0  0  0  0  0  0  0  0  0
   -2.5847   -4.0028    0.7940 N   0  0  0  0  0  0  0  0  0  0  0  0
   -2.2361   -4.8853    1.1223 H   0  0  0  0  0  0  0  0  0  0  0  0
   -3.5815   -3.8984    0.7236 H   0  0  0  0  0  0  0  0  0  0  0  0
    2.5163   -0.9048    1.1292 C   0  0  0  0  0  0  0  0  0  0  0  0
    1.2793   -0.8809    1.0308 O   0  0  0  0  0  0  0  0  0  0  0  0
    3.2776    0.1692    0.8708 N   0  0  0  0  0  0  0  0  0  0  0  0
    2.8481    1.0240    0.5622 H   0  0  0  0  0  0  0  0  0  0  0  0
    4.2799    0.0914    0.9688 H   0  0  0  0  0  0  0  0  0  0  0  0
    3.1907   -2.0136    1.4866 N   0  0  0  0  0  0  0  0  0  0  0  0
    4.1910   -1.9524    1.6075 H   0  0  0  0  0  0  0  0  0  0  0  0
    2.6916   -2.8248    1.8010 H   0  0  0  0  0  0  0  0  0  0  0  0
  1  2  1  0  0  0  0
  2  3  1  0  0  0  0
  2  4  1  0  0  0  0
  2  5  1  0  0  0  0
  5  6  1  0  0  0  0
  5  7  1  0  0  0  0
  5  8  1  0  0  0  0
  8  9  1  0  0  0  0
  9 10  1  0  0  0  0
  9 11  1  0  0  0  0
  9 12  1  0  0  0  0
  8 13  1  0  0  0  0
 13 14  1  0  0  0  0
 13 15  1  0  0  0  0
 13 16  1  0  0  0  0
  8 17  1  0  0  0  0
 17 18  1  0  0  0  0
 17 19  1  0  0  0  0
 17 20  1  0  0  0  0
  1 21  1  0  0  0  0
 22 23  2  0  0  0  0
 22 24  4  0  0  0  0
 24 25  1  0  0  0  0
 24 26  1  0  0  0  0
 22 27  4  0  0  0  0
 27 28  1  0  0  0  0
 27 29  1  0  0  0  0
 30 31  2  0  0  0  0
 30 32  4  0  0  0  0
 32 33  1  0  0  0  0
 32 34  1  0  0  0  0
 30 35  4  0  0  0  0
 35 36  1  0  0  0  0
 35 37  1  0  0  0  0
 38 39  2  0  0  0  0
 38 40  4  0  0  0  0
 40 41  1  0  0  0  0
 40 42  1  0  0  0  0
 38 43  1  0  0  0  0
 43 44  1  0  0  0  0
 43 45  1  0  0  0  0
 46 47  4  0  0  0  0
 46 48  4  0  0  0  0
 48 49  1  0  0  0  0
 48 50  1  0  0  0  0
 46 51  4  0  0  0  0
 51 52  1  0  0  0  0
 51 53  1  0  0  0  0
M  CHG  1   1   1
M  END
