 xtb: 6.6.1 (unknown-commit)
          01102415403D

 53 48  0     0  0            999 V2000
   -0.2229    0.2008   -2.0359 O   0  0  0  0  0  0  0  0  0  0  0  0
    0.9936    0.0514   -1.3639 C   0  0  0  0  0  0  0  0  0  0  0  0
    1.7273   -0.2566   -2.1123 H   0  0  0  0  0  0  0  0  0  0  0  0
    1.3288    1.0119   -0.9495 H   0  0  0  0  0  0  0  0  0  0  0  0
    0.9432   -0.9318   -0.1846 C   0  0  0  0  0  0  0  0  0  0  0  0
    0.1307   -0.6362    0.4814 H   0  0  0  0  0  0  0  0  0  0  0  0
    1.8917   -0.8805    0.3529 H   0  0  0  0  0  0  0  0  0  0  0  0
    0.7185   -2.3643   -0.5252 N   0  0  0  0  0  0  0  0  0  0  0  0
   -0.5813   -2.5459   -1.1891 C   0  0  0  0  0  0  0  0  0  0  0  0
   -1.3729   -2.2344   -0.5114 H   0  0  0  0  0  0  0  0  0  0  0  0
   -0.7224   -3.5933   -1.4482 H   0  0  0  0  0  0  0  0  0  0  0  0
   -0.6314   -1.9332   -2.0872 H   0  0  0  0  0  0  0  0  0  0  0  0
    0.7231   -3.1140    0.7441 C   0  0  0  0  0  0  0  0  0  0  0  0
   -0.0631   -2.7302    1.3942 H   0  0  0  0  0  0  0  0  0  0  0  0
    1.6936   -2.9878    1.2212 H   0  0  0  0  0  0  0  0  0  0  0  0
    0.5472   -4.1703    0.5520 H   0  0  0  0  0  0  0  0  0  0  0  0
    1.8015   -2.8753   -1.3784 C   0  0  0  0  0  0  0  0  0  0  0  0
    2.7540   -2.6802   -0.8858 H   0  0  0  0  0  0  0  0  0  0  0  0
    1.7787   -2.3929   -2.3520 H   0  0  0  0  0  0  0  0  0  0  0  0
    1.6840   -3.9479   -1.5196 H   0  0  0  0  0  0  0  0  0  0  0  0
   -0.8537    0.6409   -1.4293 H   0  0  0  0  0  0  0  0  0  0  0  0
   -1.1602    1.9260    0.9023 C   0  0  0  0  0  0  0  0  0  0  0  0
   -1.7092    1.4069   -0.0945 O   0  0  0  0  0  0  0  0  0  0  0  0
   -0.8770    1.1680    1.9852 N   0  0  0  0  0  0  0  0  0  0  0  0
   -1.2245    0.2121    2.0236 H   0  0  0  0  0  0  0  0  0  0  0  0
   -0.5594    1.5917    2.8378 H   0  0  0  0  0  0  0  0  0  0  0  0
   -0.8021    3.2056    0.9162 N   0  0  0  0  0  0  0  0  0  0  0  0
   -0.3553    3.6076    1.7202 H   0  0  0  0  0  0  0  0  0  0  0  0
   -0.9257    3.8007    0.0773 H   0  0  0  0  0  0  0  0  0  0  0  0
   -1.6509    4.3156   -2.3020 C   0  0  0  0  0  0  0  0  0  0  0  0
   -1.0445    4.7215   -1.3161 O   0  0  0  0  0  0  0  0  0  0  0  0
   -1.6792    5.0312   -3.4563 N   0  0  0  0  0  0  0  0  0  0  0  0
   -1.3150    5.9675   -3.4250 H   0  0  0  0  0  0  0  0  0  0  0  0
   -2.3148    4.8014   -4.1987 H   0  0  0  0  0  0  0  0  0  0  0  0
   -2.3227    3.1434   -2.3078 N   0  0  0  0  0  0  0  0  0  0  0  0
   -2.6661    2.7539   -3.1667 H   0  0  0  0  0  0  0  0  0  0  0  0
   -2.1874    2.5135   -1.5216 H   0  0  0  0  0  0  0  0  0  0  0  0
   -3.0339   -1.4873    1.4412 C   0  0  0  0  0  0  0  0  0  0  0  0
   -1.8346   -1.5069    1.7339 O   0  0  0  0  0  0  0  0  0  0  0  0
   -3.5247   -0.6145    0.5451 N   0  0  0  0  0  0  0  0  0  0  0  0
   -2.9129    0.1392    0.2198 H   0  0  0  0  0  0  0  0  0  0  0  0
   -4.5111   -0.5355    0.3783 H   0  0  0  0  0  0  0  0  0  0  0  0
   -3.8951   -2.4009    1.9493 N   0  0  0  0  0  0  0  0  0  0  0  0
   -4.8853   -2.3359    1.7993 H   0  0  0  0  0  0  0  0  0  0  0  0
   -3.5653   -3.0188    2.6693 H   0  0  0  0  0  0  0  0  0  0  0  0
    4.7885   -1.9084    1.4646 C   0  0  0  0  0  0  0  0  0  0  0  0
    3.6836   -2.0119    0.9466 O   0  0  0  0  0  0  0  0  0  0  0  0
    5.0102   -2.2292    2.7608 N   0  0  0  0  0  0  0  0  0  0  0  0
    4.2632   -2.6381    3.2927 H   0  0  0  0  0  0  0  0  0  0  0  0
    5.9301   -2.2263    3.1614 H   0  0  0  0  0  0  0  0  0  0  0  0
    5.8676   -1.4652    0.7781 N   0  0  0  0  0  0  0  0  0  0  0  0
    6.7545   -1.3083    1.2201 H   0  0  0  0  0  0  0  0  0  0  0  0
    5.7427   -1.1365   -0.1623 H   0  0  0  0  0  0  0  0  0  0  0  0
  1  2  1  0  0  0  0
  2  3  1  0  0  0  0
  2  4  1  0  0  0  0
  2  5  1  0  0  0  0
  5  6  1  0  0  0  0
  5  7  1  0  0  0  0
  5  8  1  0  0  0  0
  8  9  1  0  0  0  0
  9 10  1  0  0  0  0
  9 11  1  0  0  0  0
  9 12  1  0  0  0  0
  8 13  1  0  0  0  0
 13 14  1  0  0  0  0
 13 15  1  0  0  0  0
 13 16  1  0  0  0  0
  8 17  1  0  0  0  0
 17 18  1  0  0  0  0
 17 19  1  0  0  0  0
 17 20  1  0  0  0  0
  1 21  1  0  0  0  0
 22 23  4  0  0  0  0
 22 24  4  0  0  0  0
 24 25  1  0  0  0  0
 24 26  1  0  0  0  0
 22 27  4  0  0  0  0
 27 28  1  0  0  0  0
 27 29  1  0  0  0  0
 30 31  2  0  0  0  0
 30 32  1  0  0  0  0
 32 33  1  0  0  0  0
 32 34  1  0  0  0  0
 30 35  4  0  0  0  0
 35 36  1  0  0  0  0
 35 37  1  0  0  0  0
 38 39  4  0  0  0  0
 38 40  4  0  0  0  0
 40 41  1  0  0  0  0
 40 42  1  0  0  0  0
 38 43  4  0  0  0  0
 43 44  1  0  0  0  0
 43 45  1  0  0  0  0
 46 47  2  0  0  0  0
 46 48  4  0  0  0  0
 48 49  1  0  0  0  0
 48 50  1  0  0  0  0
 46 51  4  0  0  0  0
 51 52  1  0  0  0  0
 51 53  1  0  0  0  0
M  CHG  1   1   1
M  END
