  53

 O          1.9639288231       -0.7252890424       -0.4084424771
 C          1.1593531173       -1.6680121694        0.2505961003
 H          1.2791086616       -2.6554252628       -0.2200001575
 H          1.4502333221       -1.7640513751        1.3014423631
 C         -0.3193157198       -1.2564415212        0.2621433828
 H         -0.4346067056       -0.3613238780        0.8756847448
 H         -0.8787141354       -2.0722242137        0.7241438317
 N         -0.9271989522       -0.9633738913       -1.0624926986
 C         -0.4995062473        0.3612953907       -1.5455485001
 H         -0.8749488241        1.1212519342       -0.8645649004
 H         -0.9176641174        0.5181736911       -2.5380513034
 H          0.5864379187        0.3986568763       -1.5777192639
 C         -2.3918285495       -0.9280292202       -0.9120596603
 H         -2.6548125475       -0.1753892900       -0.1690155113
 H         -2.7663067284       -1.8998916146       -0.5975578057
 H         -2.8303745277       -0.6670729727       -1.8741581396
 C         -0.5676097643       -1.9735610123       -2.0682132472
 H          0.4989868178       -1.9240486027       -2.2723788784
 H         -1.1189144850       -1.7546292092       -2.9825236734
 H         -0.8285972263       -2.9685864751       -1.7131436895
 H          2.8146400998       -0.6471124471        0.0684757090
 C          4.1921355019       -1.0280172657        2.4046631754
 O          4.1315495480       -0.5526009063        1.2674327798
 N          3.1851787420       -0.8840408084        3.2853595161
 H          2.4158859985       -0.2550694663        3.0366935423
 H          3.2877358099       -1.1669480488        4.2427036808
 N          5.2611190945       -1.7549174914        2.7999970308
 H          5.3571984451       -2.1120605934        3.7324261742
 H          6.0257172420       -1.8658410888        2.1584878194
 C          1.4538119775        1.6817682904        1.5259057175
 O          1.1574133867        0.8019908523        2.3486991803
 N          2.7293942730        1.9099843524        1.1601073544
 H          3.3984518020        1.1559489179        1.3002588909
 H          2.9211093332        2.5368804354        0.3985270213
 N          0.5054387570        2.4823511635        1.0027804591
 H          0.7349505470        3.1965533718        0.3369166736
 H         -0.4716611147        2.2628733353        1.1760253147
 C         -2.9207999535       -0.0912079080       -5.0880166998
 O         -2.3976697933       -0.3647282370       -4.0162155059
 N         -3.7460846703        0.9725841663       -5.2358819152
 H         -4.0016868525        1.5003263186       -4.4208360374
 H         -4.2476079949        1.1443688090       -6.0877312080
 N         -2.7128067598       -0.8301115647       -6.2033700459
 H         -3.0699206615       -0.5548818622       -7.0997016415
 H         -2.0410404185       -1.5756153350       -6.1709624222
 C         -2.3564832959        1.1815026260        2.5058759666
 O         -2.0804300373        1.3285422802        1.3120018880
 N         -1.4157326822        0.9006860650        3.4190700893
 H         -0.4379142918        0.8441787174        3.1189948487
 H         -1.6359491247        0.8122591634        4.3935836810
 N         -3.6411542337        1.2393913818        2.9405186740
 H         -3.8612511447        1.2599457990        3.9198111728
 H         -4.3423819834        1.5636660375        2.2981619452
