 xtb: 6.6.1 (unknown-commit)
          01102418283D

 53 48  0     0  0            999 V2000
   -1.3510    0.3618   -1.0063 O   0  0  0  0  0  0  0  0  0  0  0  0
    0.0576    0.3042   -1.0218 C   0  0  0  0  0  0  0  0  0  0  0  0
    0.3310   -0.5065   -1.6999 H   0  0  0  0  0  0  0  0  0  0  0  0
    0.4684    1.2380   -1.4269 H   0  0  0  0  0  0  0  0  0  0  0  0
    0.7183    0.1017    0.3437 C   0  0  0  0  0  0  0  0  0  0  0  0
    0.4830    0.9364    1.0074 H   0  0  0  0  0  0  0  0  0  0  0  0
    1.7936    0.0587    0.1611 H   0  0  0  0  0  0  0  0  0  0  0  0
    0.3528   -1.1401    1.0812 N   0  0  0  0  0  0  0  0  0  0  0  0
   -1.0130   -1.0296    1.6148 C   0  0  0  0  0  0  0  0  0  0  0  0
   -1.0629   -0.1661    2.2775 H   0  0  0  0  0  0  0  0  0  0  0  0
   -1.2656   -1.9284    2.1737 H   0  0  0  0  0  0  0  0  0  0  0  0
   -1.7152   -0.9048    0.7937 H   0  0  0  0  0  0  0  0  0  0  0  0
    1.2984   -1.2672    2.2034 C   0  0  0  0  0  0  0  0  0  0  0  0
    1.2262   -0.3802    2.8314 H   0  0  0  0  0  0  0  0  0  0  0  0
    2.3074   -1.3669    1.8080 H   0  0  0  0  0  0  0  0  0  0  0  0
    1.0549   -2.1465    2.7961 H   0  0  0  0  0  0  0  0  0  0  0  0
    0.4738   -2.3311    0.2287 C   0  0  0  0  0  0  0  0  0  0  0  0
    0.2995   -3.2257    0.8222 H   0  0  0  0  0  0  0  0  0  0  0  0
    1.4827   -2.3555   -0.1842 H   0  0  0  0  0  0  0  0  0  0  0  0
   -0.2396   -2.3015   -0.5899 H   0  0  0  0  0  0  0  0  0  0  0  0
   -1.6154    1.1377   -0.4631 H   0  0  0  0  0  0  0  0  0  0  0  0
    3.8082   -1.6498   -1.5870 C   0  0  0  0  0  0  0  0  0  0  0  0
    3.2731   -1.4120   -0.5105 O   0  0  0  0  0  0  0  0  0  0  0  0
    5.1595   -1.6388   -1.7230 N   0  0  0  0  0  0  0  0  0  0  0  0
    5.7132   -1.3471   -0.9380 H   0  0  0  0  0  0  0  0  0  0  0  0
    5.6099   -1.7333   -2.6143 H   0  0  0  0  0  0  0  0  0  0  0  0
    3.1087   -1.9357   -2.7060 N   0  0  0  0  0  0  0  0  0  0  0  0
    3.5804   -2.2099   -3.5482 H   0  0  0  0  0  0  0  0  0  0  0  0
    2.1051   -2.0601   -2.6707 H   0  0  0  0  0  0  0  0  0  0  0  0
    0.2313    2.6664    3.3864 C   0  0  0  0  0  0  0  0  0  0  0  0
    0.1256    1.4624    3.1978 O   0  0  0  0  0  0  0  0  0  0  0  0
    1.0526    3.1761    4.3378 N   0  0  0  0  0  0  0  0  0  0  0  0
    1.4907    2.5377    4.9780 H   0  0  0  0  0  0  0  0  0  0  0  0
    1.0471    4.1510    4.5768 H   0  0  0  0  0  0  0  0  0  0  0  0
   -0.4841    3.5716    2.6676 N   0  0  0  0  0  0  0  0  0  0  0  0
   -0.2046    4.5374    2.6657 H   0  0  0  0  0  0  0  0  0  0  0  0
   -0.9375    3.2179    1.8256 H   0  0  0  0  0  0  0  0  0  0  0  0
   -0.7791   -2.1733   -3.6616 C   0  0  0  0  0  0  0  0  0  0  0  0
    0.1908   -2.2545   -2.9185 O   0  0  0  0  0  0  0  0  0  0  0  0
   -1.8672   -1.4268   -3.3520 N   0  0  0  0  0  0  0  0  0  0  0  0
   -1.8009   -0.7810   -2.5765 H   0  0  0  0  0  0  0  0  0  0  0  0
   -2.5711   -1.2458   -4.0450 H   0  0  0  0  0  0  0  0  0  0  0  0
   -0.8329   -2.8373   -4.8442 N   0  0  0  0  0  0  0  0  0  0  0  0
   -1.6813   -2.8945   -5.3779 H   0  0  0  0  0  0  0  0  0  0  0  0
   -0.1164   -3.5156   -5.0342 H   0  0  0  0  0  0  0  0  0  0  0  0
   -3.2711    2.3164    1.1043 C   0  0  0  0  0  0  0  0  0  0  0  0
   -2.1190    2.3596    0.6734 O   0  0  0  0  0  0  0  0  0  0  0  0
   -4.2481    1.6528    0.4446 N   0  0  0  0  0  0  0  0  0  0  0  0
   -4.0469    1.3052   -0.4771 H   0  0  0  0  0  0  0  0  0  0  0  0
   -5.2110    1.7251    0.7195 H   0  0  0  0  0  0  0  0  0  0  0  0
   -3.6199    2.9091    2.2634 N   0  0  0  0  0  0  0  0  0  0  0  0
   -4.5385    2.8116    2.6554 H   0  0  0  0  0  0  0  0  0  0  0  0
   -2.8894    3.3010    2.8348 H   0  0  0  0  0  0  0  0  0  0  0  0
  1  2  1  0  0  0  0
  2  3  1  0  0  0  0
  2  4  1  0  0  0  0
  2  5  1  0  0  0  0
  5  6  1  0  0  0  0
  5  7  1  0  0  0  0
  5  8  1  0  0  0  0
  8  9  1  0  0  0  0
  9 10  1  0  0  0  0
  9 11  1  0  0  0  0
  9 12  1  0  0  0  0
  8 13  1  0  0  0  0
 13 14  1  0  0  0  0
 13 15  1  0  0  0  0
 13 16  1  0  0  0  0
  8 17  1  0  0  0  0
 17 18  1  0  0  0  0
 17 19  1  0  0  0  0
 17 20  1  0  0  0  0
  1 21  1  0  0  0  0
 22 23  2  0  0  0  0
 22 24  1  0  0  0  0
 24 25  1  0  0  0  0
 24 26  1  0  0  0  0
 22 27  4  0  0  0  0
 27 28  1  0  0  0  0
 27 29  1  0  0  0  0
 30 31  2  0  0  0  0
 30 32  4  0  0  0  0
 32 33  1  0  0  0  0
 32 34  1  0  0  0  0
 30 35  4  0  0  0  0
 35 36  1  0  0  0  0
 35 37  1  0  0  0  0
 38 39  2  0  0  0  0
 38 40  4  0  0  0  0
 40 41  1  0  0  0  0
 40 42  1  0  0  0  0
 38 43  4  0  0  0  0
 43 44  1  0  0  0  0
 43 45  1  0  0  0  0
 46 47  2  0  0  0  0
 46 48  4  0  0  0  0
 48 49  1  0  0  0  0
 48 50  1  0  0  0  0
 46 51  4  0  0  0  0
 51 52  1  0  0  0  0
 51 53  1  0  0  0  0
M  CHG  1   1   1
M  END
