 xtb: 6.6.1 (unknown-commit)
          01102415353D

 53 48  0     0  0            999 V2000
    1.6114   -3.1430   -1.3629 O   0  0  0  0  0  0  0  0  0  0  0  0
    2.8747   -2.8227   -1.8647 C   0  0  0  0  0  0  0  0  0  0  0  0
    3.5807   -2.6149   -1.0561 H   0  0  0  0  0  0  0  0  0  0  0  0
    3.2459   -3.6930   -2.4201 H   0  0  0  0  0  0  0  0  0  0  0  0
    2.8642   -1.6578   -2.8781 C   0  0  0  0  0  0  0  0  0  0  0  0
    2.2444   -1.9494   -3.7283 H   0  0  0  0  0  0  0  0  0  0  0  0
    3.8915   -1.5226   -3.2226 H   0  0  0  0  0  0  0  0  0  0  0  0
    2.3573   -0.3470   -2.3864 N   0  0  0  0  0  0  0  0  0  0  0  0
    0.8885   -0.3698   -2.2689 C   0  0  0  0  0  0  0  0  0  0  0  0
    0.4365   -0.5655   -3.2388 H   0  0  0  0  0  0  0  0  0  0  0  0
    0.5435    0.5964   -1.9063 H   0  0  0  0  0  0  0  0  0  0  0  0
    0.5825   -1.1507   -1.5792 H   0  0  0  0  0  0  0  0  0  0  0  0
    2.7203    0.6976   -3.3601 C   0  0  0  0  0  0  0  0  0  0  0  0
    2.3108    0.4631   -4.3407 H   0  0  0  0  0  0  0  0  0  0  0  0
    3.8025    0.7840   -3.4384 H   0  0  0  0  0  0  0  0  0  0  0  0
    2.3127    1.6479   -3.0174 H   0  0  0  0  0  0  0  0  0  0  0  0
    2.9413    0.0180   -1.0832 C   0  0  0  0  0  0  0  0  0  0  0  0
    4.0267   -0.0338   -1.1347 H   0  0  0  0  0  0  0  0  0  0  0  0
    2.5796   -0.6453   -0.2987 H   0  0  0  0  0  0  0  0  0  0  0  0
    2.6362    1.0353   -0.8432 H   0  0  0  0  0  0  0  0  0  0  0  0
    1.5504   -2.7857   -0.4454 H   0  0  0  0  0  0  0  0  0  0  0  0
   -1.6532    0.8930   -0.0762 C   0  0  0  0  0  0  0  0  0  0  0  0
   -1.8811    1.2510   -1.2294 O   0  0  0  0  0  0  0  0  0  0  0  0
   -2.5726    0.1961    0.6464 N   0  0  0  0  0  0  0  0  0  0  0  0
   -3.3389   -0.1805    0.1132 H   0  0  0  0  0  0  0  0  0  0  0  0
   -2.3028   -0.3103    1.4825 H   0  0  0  0  0  0  0  0  0  0  0  0
   -0.5094    1.2108    0.5616 N   0  0  0  0  0  0  0  0  0  0  0  0
   -0.3024    0.8562    1.4790 H   0  0  0  0  0  0  0  0  0  0  0  0
    0.1886    1.7531    0.0633 H   0  0  0  0  0  0  0  0  0  0  0  0
    0.6719    3.6132   -1.7411 C   0  0  0  0  0  0  0  0  0  0  0  0
    1.2703    2.6557   -1.2370 O   0  0  0  0  0  0  0  0  0  0  0  0
   -0.6225    3.5462   -2.0664 N   0  0  0  0  0  0  0  0  0  0  0  0
   -1.1518    2.6951   -1.8367 H   0  0  0  0  0  0  0  0  0  0  0  0
   -1.1074    4.3308   -2.4610 H   0  0  0  0  0  0  0  0  0  0  0  0
    1.3335    4.7593   -2.0525 N   0  0  0  0  0  0  0  0  0  0  0  0
    0.8346    5.5875   -2.3235 H   0  0  0  0  0  0  0  0  0  0  0  0
    2.2663    4.8768   -1.6975 H   0  0  0  0  0  0  0  0  0  0  0  0
   -3.4147   -0.8687    3.8282 C   0  0  0  0  0  0  0  0  0  0  0  0
   -2.4155   -1.2022    3.1889 O   0  0  0  0  0  0  0  0  0  0  0  0
   -4.1948    0.1593    3.4376 N   0  0  0  0  0  0  0  0  0  0  0  0
   -3.9550    0.6602    2.5980 H   0  0  0  0  0  0  0  0  0  0  0  0
   -5.0114    0.4363    3.9505 H   0  0  0  0  0  0  0  0  0  0  0  0
   -3.7767   -1.5062    4.9600 N   0  0  0  0  0  0  0  0  0  0  0  0
   -4.6030   -1.2627    5.4744 H   0  0  0  0  0  0  0  0  0  0  0  0
   -3.2360   -2.2940    5.2696 H   0  0  0  0  0  0  0  0  0  0  0  0
    0.5260   -1.7882    1.6181 C   0  0  0  0  0  0  0  0  0  0  0  0
    1.5760   -1.8711    0.9797 O   0  0  0  0  0  0  0  0  0  0  0  0
   -0.5854   -2.4676    1.2782 N   0  0  0  0  0  0  0  0  0  0  0  0
   -0.5445   -3.1508    0.5422 H   0  0  0  0  0  0  0  0  0  0  0  0
   -1.4019   -2.4174    1.8661 H   0  0  0  0  0  0  0  0  0  0  0  0
    0.3857   -0.9241    2.6544 N   0  0  0  0  0  0  0  0  0  0  0  0
   -0.4484   -0.9895    3.2208 H   0  0  0  0  0  0  0  0  0  0  0  0
    1.2243   -0.5570    3.0709 H   0  0  0  0  0  0  0  0  0  0  0  0
  1  2  1  0  0  0  0
  2  3  1  0  0  0  0
  2  4  1  0  0  0  0
  2  5  1  0  0  0  0
  5  6  1  0  0  0  0
  5  7  1  0  0  0  0
  5  8  1  0  0  0  0
  8  9  1  0  0  0  0
  9 10  1  0  0  0  0
  9 11  1  0  0  0  0
  9 12  1  0  0  0  0
  8 13  1  0  0  0  0
 13 14  1  0  0  0  0
 13 15  1  0  0  0  0
 13 16  1  0  0  0  0
  8 17  1  0  0  0  0
 17 18  1  0  0  0  0
 17 19  1  0  0  0  0
 17 20  1  0  0  0  0
  1 21  1  0  0  0  0
 22 23  2  0  0  0  0
 22 24  1  0  0  0  0
 24 25  1  0  0  0  0
 24 26  1  0  0  0  0
 22 27  4  0  0  0  0
 27 28  1  0  0  0  0
 27 29  1  0  0  0  0
 30 31  4  0  0  0  0
 30 32  4  0  0  0  0
 32 33  1  0  0  0  0
 32 34  1  0  0  0  0
 30 35  1  0  0  0  0
 35 36  1  0  0  0  0
 35 37  1  0  0  0  0
 38 39  4  0  0  0  0
 38 40  4  0  0  0  0
 40 41  1  0  0  0  0
 40 42  1  0  0  0  0
 38 43  4  0  0  0  0
 43 44  1  0  0  0  0
 43 45  1  0  0  0  0
 46 47  4  0  0  0  0
 46 48  4  0  0  0  0
 48 49  1  0  0  0  0
 48 50  1  0  0  0  0
 46 51  4  0  0  0  0
 51 52  1  0  0  0  0
 51 53  1  0  0  0  0
M  CHG  1   1   1
M  END
