 xtb: 6.6.1 (unknown-commit)
          01102418313D

 53 48  0     0  0            999 V2000
    0.4478   -3.5356    2.2419 O   0  0  0  0  0  0  0  0  0  0  0  0
   -0.7982   -3.3435    1.5961 C   0  0  0  0  0  0  0  0  0  0  0  0
   -1.1334   -4.2805    1.1324 H   0  0  0  0  0  0  0  0  0  0  0  0
   -1.5568   -3.0461    2.3305 H   0  0  0  0  0  0  0  0  0  0  0  0
   -0.6923   -2.2065    0.5843 C   0  0  0  0  0  0  0  0  0  0  0  0
   -0.0917   -1.4087    1.0336 H   0  0  0  0  0  0  0  0  0  0  0  0
   -1.6907   -1.8339    0.3566 H   0  0  0  0  0  0  0  0  0  0  0  0
   -0.0439   -2.5261   -0.7158 N   0  0  0  0  0  0  0  0  0  0  0  0
    1.3023   -3.0756   -0.5055 C   0  0  0  0  0  0  0  0  0  0  0  0
    1.8795   -2.3438    0.0591 H   0  0  0  0  0  0  0  0  0  0  0  0
    1.7845   -3.2576   -1.4636 H   0  0  0  0  0  0  0  0  0  0  0  0
    1.2585   -4.0038    0.0574 H   0  0  0  0  0  0  0  0  0  0  0  0
    0.0819   -1.2590   -1.4594 C   0  0  0  0  0  0  0  0  0  0  0  0
    0.6915   -0.5608   -0.8887 H   0  0  0  0  0  0  0  0  0  0  0  0
   -0.9043   -0.8253   -1.6023 H   0  0  0  0  0  0  0  0  0  0  0  0
    0.5447   -1.4396   -2.4264 H   0  0  0  0  0  0  0  0  0  0  0  0
   -0.8799   -3.4458   -1.4999 C   0  0  0  0  0  0  0  0  0  0  0  0
   -0.9651   -4.4114   -1.0070 H   0  0  0  0  0  0  0  0  0  0  0  0
   -0.4413   -3.5991   -2.4841 H   0  0  0  0  0  0  0  0  0  0  0  0
   -1.8719   -3.0093   -1.6143 H   0  0  0  0  0  0  0  0  0  0  0  0
    0.3398   -4.1614    2.9657 H   0  0  0  0  0  0  0  0  0  0  0  0
    2.1411   -0.0635    2.0928 C   0  0  0  0  0  0  0  0  0  0  0  0
    1.6133   -0.3198    1.0136 O   0  0  0  0  0  0  0  0  0  0  0  0
    2.7745    1.0951    2.3354 N   0  0  0  0  0  0  0  0  0  0  0  0
    2.6930    1.8494    1.6584 H   0  0  0  0  0  0  0  0  0  0  0  0
    3.1185    1.3191    3.2515 H   0  0  0  0  0  0  0  0  0  0  0  0
    2.0784   -0.9575    3.1218 N   0  0  0  0  0  0  0  0  0  0  0  0
    2.6705   -0.8561    3.9266 H   0  0  0  0  0  0  0  0  0  0  0  0
    1.7393   -1.8832    2.9066 H   0  0  0  0  0  0  0  0  0  0  0  0
    2.4674    3.3996   -0.6504 C   0  0  0  0  0  0  0  0  0  0  0  0
    2.2629    3.2398    0.5555 O   0  0  0  0  0  0  0  0  0  0  0  0
    3.6312    3.9460   -1.0882 N   0  0  0  0  0  0  0  0  0  0  0  0
    4.2461    4.3463   -0.4015 H   0  0  0  0  0  0  0  0  0  0  0  0
    3.7517    4.2284   -2.0439 H   0  0  0  0  0  0  0  0  0  0  0  0
    1.5842    3.0231   -1.5851 N   0  0  0  0  0  0  0  0  0  0  0  0
    1.7753    3.1505   -2.5616 H   0  0  0  0  0  0  0  0  0  0  0  0
    0.7195    2.5498   -1.3090 H   0  0  0  0  0  0  0  0  0  0  0  0
   -3.5255   -0.1758   -2.0049 C   0  0  0  0  0  0  0  0  0  0  0  0
   -3.0793   -0.9034   -1.1115 O   0  0  0  0  0  0  0  0  0  0  0  0
   -4.6378   -0.5222   -2.6987 N   0  0  0  0  0  0  0  0  0  0  0  0
   -5.1699   -1.3134   -2.3824 H   0  0  0  0  0  0  0  0  0  0  0  0
   -5.0741    0.1098   -3.3450 H   0  0  0  0  0  0  0  0  0  0  0  0
   -2.9036    0.9541   -2.3737 N   0  0  0  0  0  0  0  0  0  0  0  0
   -3.2985    1.5650   -3.0647 H   0  0  0  0  0  0  0  0  0  0  0  0
   -2.0818    1.2718   -1.8470 H   0  0  0  0  0  0  0  0  0  0  0  0
   -0.9597    1.6431    0.4408 C   0  0  0  0  0  0  0  0  0  0  0  0
   -0.7476    1.7023   -0.7793 O   0  0  0  0  0  0  0  0  0  0  0  0
   -0.2697    2.3787    1.3227 N   0  0  0  0  0  0  0  0  0  0  0  0
    0.6146    2.8035    1.0257 H   0  0  0  0  0  0  0  0  0  0  0  0
   -0.3908    2.2206    2.3071 H   0  0  0  0  0  0  0  0  0  0  0  0
   -1.9316    0.8390    0.9280 N   0  0  0  0  0  0  0  0  0  0  0  0
   -2.1929    0.8619    1.8958 H   0  0  0  0  0  0  0  0  0  0  0  0
   -2.4860    0.2918    0.2803 H   0  0  0  0  0  0  0  0  0  0  0  0
  1  2  1  0  0  0  0
  2  3  1  0  0  0  0
  2  4  1  0  0  0  0
  2  5  1  0  0  0  0
  5  6  1  0  0  0  0
  5  7  1  0  0  0  0
  5  8  1  0  0  0  0
  8  9  1  0  0  0  0
  9 10  1  0  0  0  0
  9 11  1  0  0  0  0
  9 12  1  0  0  0  0
  8 13  1  0  0  0  0
 13 14  1  0  0  0  0
 13 15  1  0  0  0  0
 13 16  1  0  0  0  0
  8 17  1  0  0  0  0
 17 18  1  0  0  0  0
 17 19  1  0  0  0  0
 17 20  1  0  0  0  0
  1 21  1  0  0  0  0
 22 23  2  0  0  0  0
 22 24  4  0  0  0  0
 24 25  1  0  0  0  0
 24 26  1  0  0  0  0
 22 27  1  0  0  0  0
 27 28  1  0  0  0  0
 27 29  1  0  0  0  0
 30 31  4  0  0  0  0
 30 32  1  0  0  0  0
 32 33  1  0  0  0  0
 32 34  1  0  0  0  0
 30 35  4  0  0  0  0
 35 36  1  0  0  0  0
 35 37  1  0  0  0  0
 38 39  4  0  0  0  0
 38 40  4  0  0  0  0
 40 41  1  0  0  0  0
 40 42  1  0  0  0  0
 38 43  4  0  0  0  0
 43 44  1  0  0  0  0
 43 45  1  0  0  0  0
 46 47  4  0  0  0  0
 46 48  4  0  0  0  0
 48 49  1  0  0  0  0
 48 50  1  0  0  0  0
 46 51  4  0  0  0  0
 51 52  1  0  0  0  0
 51 53  1  0  0  0  0
M  CHG  1   1   1
M  END
