  53

 O          1.1742101714       -1.7876520394        2.1252099892
 C          0.1787608449       -2.3421794850        2.9316101818
 H          0.5021144464       -3.3526511477        3.1953542465
 H          0.0864799655       -1.7667321037        3.8614278725
 C         -1.2144252855       -2.3277946641        2.2811147549
 H         -1.3593128606       -1.3377987689        1.8376723884
 H         -1.9625069009       -2.4838812386        3.0597209396
 N         -1.4588528227       -3.3315704610        1.2069094951
 C         -0.5448763275       -3.0932848381        0.0775754664
 H         -0.7233453791       -3.8249920555       -0.7069495745
 H          0.4881731828       -3.1534583794        0.4062400223
 H         -0.7319523317       -2.0908119705       -0.3126783174
 C         -2.8426338189       -3.1529934435        0.7305376749
 H         -3.0561830699       -3.8653640842       -0.0636656637
 H         -2.9500236801       -2.1419322944        0.3363229442
 H         -3.5475148739       -3.3070358500        1.5447645176
 C         -1.2934794300       -4.7049174855        1.7060546741
 H         -1.9040132428       -4.8602288981        2.5942295229
 H         -0.2523123955       -4.8995152726        1.9519045253
 H         -1.6020718568       -5.4140754663        0.9396971930
 H          0.9224129649       -0.8317947328        2.0085917577
 C          2.6822577255       -1.6590304314       -1.1373459323
 O          1.6295545715       -1.0347717058       -1.2207254220
 N          3.0531129694       -2.2979354713       -0.0040993195
 H          2.5244397393       -2.1014232691        0.8385720448
 H          3.9932209408       -2.6342880316        0.1057570481
 N          3.5293679833       -1.7673144057       -2.1901760601
 H          4.3376251178       -2.3615109597       -2.1647281426
 H          3.2342131028       -1.4058223044       -3.0794608182
 C          0.2779019232        4.6423764929       -1.6430659658
 O         -0.3234694601        3.5789679061       -1.5040226967
 N          1.1729710877        5.0774036356       -0.7291478035
 H          1.3636451489        4.5111424978        0.0795061860
 H          1.6768597038        5.9378011477       -0.8396413293
 N          0.0834921054        5.4372758579       -2.7159246091
 H          0.5505806696        6.3183988240       -2.8252963063
 H         -0.5897232358        5.1631602501       -3.4089106231
 C          0.1609638785        1.4824033638        1.2012610454
 O          0.0802995452        0.6019901638        2.0539844918
 N          1.0103866709        1.4224378997        0.1497586095
 H          1.3460657925        0.5094052426       -0.1388213749
 H          0.8458789277        2.0806002548       -0.5981718186
 N         -0.5269153503        2.6506854143        1.3083166881
 H         -0.6715031157        3.1915427216        0.4676837615
 H         -1.2198192081        2.7088511959        2.0343521892
 C         -1.7910481743        0.4932140651       -1.0577374774
 O         -2.0256500391       -0.4597474027       -0.3196796013
 N         -2.5523040314        1.6157522524       -1.0492064318
 H         -3.2675219468        1.6968527402       -0.3486420851
 H         -2.1969013115        2.4575736366       -1.4705138533
 N         -0.8147510771        0.4707230665       -1.9948721343
 H         -0.5631762564        1.3425351356       -2.4297364415
 H         -0.0819750875       -0.2199353549       -1.9069500436
