53
 xtb: 6.6.1 (unknown-commit)
O            1.16929986835821       -1.82185318479710        2.13435676099486
C            0.15882294057576       -2.34266726811344        2.94032318795887
H            0.49112234477645       -3.35289859660712        3.20383513892840
H            0.08080755000122       -1.76176009348357        3.86079667290964
C           -1.22846076389670       -2.31823312894047        2.27753156955609
H           -1.35892073332014       -1.33594128523832        1.83312926239571
H           -1.96901747432881       -2.47613601186680        3.05734176429986
N           -1.47678555731430       -3.33045998197899        1.21221124846140
C           -0.55373307428337       -3.11007980769965        0.08489391503543
H           -0.72651837622594       -3.83151142368416       -0.70314300242779
H            0.48493130676893       -3.16000103376368        0.41018803439699
H           -0.73147209583379       -2.09622878704128       -0.31340552658179
C           -2.85541789748830       -3.14582563877727        0.72669305325479
H           -3.06011092159732       -3.86455182576996       -0.06356679319551
H           -2.95104663916150       -2.14045415675519        0.33293594768110
H           -3.55281232184220       -3.30176914358080        1.54289227650885
C           -1.32333057376811       -4.70038967008274        1.72496173032333
H           -1.91400831273221       -4.85488460078844        2.59950645094978
H           -0.26169769002386       -4.89997557135163        1.95904604157430
H           -1.61164209456340       -5.41418772896286        0.94687541318594
H            0.92610994003762       -0.83961496327571        2.00636877658567
C            2.69741319726130       -1.69491835026860       -1.12842187997232
O            1.65419798136022       -1.06564286714130       -1.22484585087085
N            3.05164089911803       -2.33759987829981        0.01059994707820
H            2.52222032451722       -2.11118332257636        0.84111832609504
H            3.99149033265458       -2.64780796601510        0.11224226894496
N            3.55684128997367       -1.81572412161750       -2.17062171176600
H            4.34349289653327       -2.37641923789438       -2.15659916475400
H            3.24525078013714       -1.41864425213953       -3.07536167813601
C            0.22334924909346        4.70314383518825       -1.62923034614953
O           -0.38790696527031        3.65356328589168       -1.46151787190796
N            1.10479854981610        5.16965648983690       -0.71790269462995
H            1.33917686560539        4.54493586921677        0.09029376170927
H            1.65565877366058        5.96384592715354       -0.83977301803538
N            0.04291516410987        5.46672425966685       -2.73114884227137
H            0.53936753157451        6.32582168722699       -2.83464614985469
H           -0.59897633575117        5.16577529419193       -3.41248576725998
C            0.20686596098874        1.46925890563756        1.17556135500642
O            0.12302390144510        0.58402651630978        2.02034650321936
N            1.06286789189789        1.40412360600440        0.12413645510758
H            1.35800882419859        0.50404043012989       -0.14689765916910
H            0.86542872592145        2.07875774577607       -0.60302678670325
N           -0.46747771336907        2.64117770120358        1.28106594481433
H           -0.65659405663695        3.18731195979272        0.45888989138760
H           -1.20464598326592        2.70636644492082        2.02636594868625
C           -1.77449653717939        0.49062057566394       -1.06262411620679
O           -2.00954239182817       -0.46574910719974       -0.33023067415916
N           -2.53543808605441        1.61224432012737       -1.05638805562760
H           -3.26264605367176        1.69521825235586       -0.35005613506274
H           -2.19000339359829        2.45812951678038       -1.46776401050752
N           -0.79121936899328        0.47008871792820       -1.99435583234406
H           -0.55782394301252        1.34156826310217       -2.43152591371195
H           -0.07667680371177       -0.22123076076369       -1.90784029905412
