 xtb: 6.6.1 (unknown-commit)
          01102418343D

 53 48  0     0  0            999 V2000
    1.1742   -1.7877    2.1252 O   0  0  0  0  0  0  0  0  0  0  0  0
    0.1788   -2.3422    2.9316 C   0  0  0  0  0  0  0  0  0  0  0  0
    0.5021   -3.3526    3.1954 H   0  0  0  0  0  0  0  0  0  0  0  0
    0.0865   -1.7667    3.8614 H   0  0  0  0  0  0  0  0  0  0  0  0
   -1.2144   -2.3278    2.2811 C   0  0  0  0  0  0  0  0  0  0  0  0
   -1.3593   -1.3378    1.8377 H   0  0  0  0  0  0  0  0  0  0  0  0
   -1.9625   -2.4839    3.0597 H   0  0  0  0  0  0  0  0  0  0  0  0
   -1.4589   -3.3316    1.2069 N   0  0  0  0  0  0  0  0  0  0  0  0
   -0.5449   -3.0933    0.0776 C   0  0  0  0  0  0  0  0  0  0  0  0
   -0.7234   -3.8250   -0.7069 H   0  0  0  0  0  0  0  0  0  0  0  0
    0.4882   -3.1535    0.4062 H   0  0  0  0  0  0  0  0  0  0  0  0
   -0.7320   -2.0908   -0.3127 H   0  0  0  0  0  0  0  0  0  0  0  0
   -2.8426   -3.1530    0.7306 C   0  0  0  0  0  0  0  0  0  0  0  0
   -3.0562   -3.8653   -0.0636 H   0  0  0  0  0  0  0  0  0  0  0  0
   -2.9500   -2.1419    0.3363 H   0  0  0  0  0  0  0  0  0  0  0  0
   -3.5475   -3.3070    1.5448 H   0  0  0  0  0  0  0  0  0  0  0  0
   -1.2935   -4.7049    1.7061 C   0  0  0  0  0  0  0  0  0  0  0  0
   -1.9040   -4.8602    2.5942 H   0  0  0  0  0  0  0  0  0  0  0  0
   -0.2523   -4.8995    1.9519 H   0  0  0  0  0  0  0  0  0  0  0  0
   -1.6021   -5.4141    0.9397 H   0  0  0  0  0  0  0  0  0  0  0  0
    0.9224   -0.8318    2.0086 H   0  0  0  0  0  0  0  0  0  0  0  0
    2.6822   -1.6590   -1.1374 C   0  0  0  0  0  0  0  0  0  0  0  0
    1.6295   -1.0348   -1.2207 O   0  0  0  0  0  0  0  0  0  0  0  0
    3.0531   -2.2980   -0.0041 N   0  0  0  0  0  0  0  0  0  0  0  0
    2.5244   -2.1014    0.8386 H   0  0  0  0  0  0  0  0  0  0  0  0
    3.9932   -2.6343    0.1057 H   0  0  0  0  0  0  0  0  0  0  0  0
    3.5294   -1.7673   -2.1902 N   0  0  0  0  0  0  0  0  0  0  0  0
    4.3376   -2.3615   -2.1647 H   0  0  0  0  0  0  0  0  0  0  0  0
    3.2342   -1.4058   -3.0795 H   0  0  0  0  0  0  0  0  0  0  0  0
    0.2779    4.6424   -1.6431 C   0  0  0  0  0  0  0  0  0  0  0  0
   -0.3235    3.5790   -1.5040 O   0  0  0  0  0  0  0  0  0  0  0  0
    1.1730    5.0774   -0.7292 N   0  0  0  0  0  0  0  0  0  0  0  0
    1.3637    4.5111    0.0795 H   0  0  0  0  0  0  0  0  0  0  0  0
    1.6769    5.9378   -0.8397 H   0  0  0  0  0  0  0  0  0  0  0  0
    0.0835    5.4373   -2.7159 N   0  0  0  0  0  0  0  0  0  0  0  0
    0.5506    6.3184   -2.8253 H   0  0  0  0  0  0  0  0  0  0  0  0
   -0.5897    5.1632   -3.4089 H   0  0  0  0  0  0  0  0  0  0  0  0
    0.1610    1.4824    1.2013 C   0  0  0  0  0  0  0  0  0  0  0  0
    0.0803    0.6020    2.0540 O   0  0  0  0  0  0  0  0  0  0  0  0
    1.0104    1.4224    0.1498 N   0  0  0  0  0  0  0  0  0  0  0  0
    1.3461    0.5094   -0.1388 H   0  0  0  0  0  0  0  0  0  0  0  0
    0.8459    2.0806   -0.5982 H   0  0  0  0  0  0  0  0  0  0  0  0
   -0.5269    2.6507    1.3083 N   0  0  0  0  0  0  0  0  0  0  0  0
   -0.6715    3.1915    0.4677 H   0  0  0  0  0  0  0  0  0  0  0  0
   -1.2198    2.7089    2.0344 H   0  0  0  0  0  0  0  0  0  0  0  0
   -1.7910    0.4932   -1.0577 C   0  0  0  0  0  0  0  0  0  0  0  0
   -2.0257   -0.4597   -0.3197 O   0  0  0  0  0  0  0  0  0  0  0  0
   -2.5523    1.6158   -1.0492 N   0  0  0  0  0  0  0  0  0  0  0  0
   -3.2675    1.6969   -0.3486 H   0  0  0  0  0  0  0  0  0  0  0  0
   -2.1969    2.4576   -1.4705 H   0  0  0  0  0  0  0  0  0  0  0  0
   -0.8148    0.4707   -1.9949 N   0  0  0  0  0  0  0  0  0  0  0  0
   -0.5632    1.3425   -2.4297 H   0  0  0  0  0  0  0  0  0  0  0  0
   -0.0820   -0.2199   -1.9069 H   0  0  0  0  0  0  0  0  0  0  0  0
  1  2  1  0  0  0  0
  2  3  1  0  0  0  0
  2  4  1  0  0  0  0
  2  5  1  0  0  0  0
  5  6  1  0  0  0  0
  5  7  1  0  0  0  0
  5  8  1  0  0  0  0
  8  9  1  0  0  0  0
  9 10  1  0  0  0  0
  9 11  1  0  0  0  0
  9 12  1  0  0  0  0
  8 13  1  0  0  0  0
 13 14  1  0  0  0  0
 13 15  1  0  0  0  0
 13 16  1  0  0  0  0
  8 17  1  0  0  0  0
 17 18  1  0  0  0  0
 17 19  1  0  0  0  0
 17 20  1  0  0  0  0
  1 21  1  0  0  0  0
 22 23  2  0  0  0  0
 22 24  4  0  0  0  0
 24 25  1  0  0  0  0
 24 26  1  0  0  0  0
 22 27  4  0  0  0  0
 27 28  1  0  0  0  0
 27 29  1  0  0  0  0
 30 31  2  0  0  0  0
 30 32  4  0  0  0  0
 32 33  1  0  0  0  0
 32 34  1  0  0  0  0
 30 35  4  0  0  0  0
 35 36  1  0  0  0  0
 35 37  1  0  0  0  0
 38 39  2  0  0  0  0
 38 40  4  0  0  0  0
 40 41  1  0  0  0  0
 40 42  1  0  0  0  0
 38 43  4  0  0  0  0
 43 44  1  0  0  0  0
 43 45  1  0  0  0  0
 46 47  2  0  0  0  0
 46 48  4  0  0  0  0
 48 49  1  0  0  0  0
 48 50  1  0  0  0  0
 46 51  4  0  0  0  0
 51 52  1  0  0  0  0
 51 53  1  0  0  0  0
M  CHG  1   1   1
M  END
