  53

 O         -1.9295726069       -2.0420213795       -1.5335522095
 C         -0.5340606644       -2.0149584438       -1.5249853983
 H         -0.2215307935       -2.9898853218       -1.9100754599
 H         -0.1573217962       -1.2296106011       -2.1948654699
 C         -0.0258454949       -1.7855893915       -0.0892888547
 H         -0.6141316253       -2.4296472918        0.5692204700
 H         -0.2065415945       -0.7401501015        0.1825272228
 N          1.4122967174       -2.0504806699        0.1576722538
 C          1.7127107168       -1.6823715192        1.5538227478
 H          2.7669561896       -1.8789162525        1.7427127604
 H          1.1034465833       -2.2695996464        2.2370553682
 H          1.5017138754       -0.6230217100        1.6910442754
 C          2.2557527881       -1.2135652785       -0.7114208018
 H          2.1025511559       -1.4722054289       -1.7554533503
 H          3.2980058124       -1.3831701676       -0.4460113822
 H          1.9962711274       -0.1689362174       -0.5434836370
 C          1.7581717770       -3.4663829004       -0.0395606716
 H          1.6208526408       -3.7547015563       -1.0783629016
 H          1.1337650224       -4.0970864273        0.5898521674
 H          2.8048773420       -3.6036040197        0.2319207841
 H         -2.2661027633       -1.1633335959       -1.2340345134
 C          5.8031860099       -2.8635163087        1.1276565925
 O          4.6243283843       -2.6657958383        0.8637765115
 N          6.3227969493       -2.6008566750        2.3498347585
 H          5.7415681502       -2.1576746921        3.0380747347
 H          7.3034166975       -2.6878242854        2.5431566059
 N          6.6720360318       -3.3611224564        0.2166401633
 H          7.6187787073       -3.5949629882        0.4521842911
 H          6.3234402813       -3.6416528505       -0.6820456785
 C          0.2261341573        2.2191225202        0.4556141798
 O          0.7549608328        1.1269821317        0.6537431803
 N          0.6640925956        3.3450929615        1.0763769218
 H          1.5306813890        3.3054512030        1.5827480598
 H          0.3178677629        4.2469360771        0.8026662620
 N         -0.8007112632        2.3809842046       -0.4030833467
 H         -1.3643319562        3.2194871452       -0.3733980445
 H         -1.3116477537        1.5515826643       -0.6818606642
 C         -3.4382166903        0.8433869862       -2.0748718217
 O         -2.8327979139        0.4498667202       -1.0595050640
 N         -3.8194597049        2.1160443553       -2.2067132176
 H         -3.6075940528        2.7874271324       -1.4615224791
 H         -4.3000621027        2.4379779655       -3.0265616680
 N         -3.7055753904       -0.0095816433       -3.0843289113
 H         -4.2404797120        0.2679585440       -3.8865396066
 H         -3.4522453483       -0.9788990630       -2.9791657100
 C         -3.6995544501        3.2778312172        1.0385526834
 O         -3.2935391941        3.7679516884       -0.0155612502
 N         -4.1032043416        4.0612953703        2.0677161519
 H         -4.1825333370        5.0490406480        1.9016456247
 H         -4.5500945799        3.6810623504        2.8818808702
 N         -3.7299380714        1.9475193220        1.2411705974
 H         -4.0494737476        1.5498674736        2.1045522619
 H         -3.3981517884        1.3295877532        0.5059233796
