53
 xtb: 6.6.1 (unknown-commit)
O           -1.93389360944556       -2.04690189215752       -1.52179200371223
C           -0.53775790782131       -2.02134565152989       -1.51601878243314
H           -0.22314822599757       -2.99235557397899       -1.90634217056609
H           -0.15820869395052       -1.23245461223822       -2.19332172356695
C           -0.02803413369107       -1.78658947000521       -0.08172443451421
H           -0.61480083794962       -2.42895211299565        0.57234966542878
H           -0.20678452108042       -0.74004539085557        0.18348166326256
N            1.40989109900131       -2.05205011657027        0.16564214161024
C            1.71230101424579       -1.67783818392743        1.55922032985669
H            2.76689802359836       -1.87739008292349        1.74412471219995
H            1.10348368660141       -2.26735702494982        2.23956297735061
H            1.50178663690163       -0.62150803774386        1.69133959745085
C            2.25365183106864       -1.21983419155378       -0.70853376837029
H            2.10167088562581       -1.47544204166075       -1.75423545986620
H            3.29738116714860       -1.38488860545738       -0.44502504798198
H            1.99594078342679       -0.17047024580429       -0.54402540837174
C            1.75407427156259       -3.46914032542144       -0.02616086629749
H            1.61920452886285       -3.75684611229481       -1.07405058086203
H            1.13254145628149       -4.09685309154459        0.59475219128648
H            2.80368977023884       -3.60453162850119        0.23560307493878
H           -2.26673140560026       -1.16407608891509       -1.23195782905681
C            5.80315404043945       -2.86161033618497        1.12653934686457
O            4.62228048293037       -2.66567762841636        0.87019132858799
N            6.29424419471987       -2.74824274733083        2.39287557886163
H            5.72687847337415       -2.22811383013184        3.06354815823915
H            7.29556809015383       -2.72646748022471        2.55602872202972
N            6.70345010348411       -3.20643229941906        0.16186737275697
H            7.62799095921897       -3.55440214878954        0.43335971741247
H            6.33811512795401       -3.57078881901300       -0.70834729228278
C            0.22845617674549        2.22010157006425        0.44719923496371
O            0.75546016380644        1.12755950940543        0.64679087730207
N            0.67023524575141        3.34718113699476        1.06281332701962
H            1.53257124277069        3.30590104079627        1.57871278932847
H            0.31997333795461        4.24747463863423        0.79839521041426
N           -0.79946918469299        2.38129915191029       -0.41080864997705
H           -1.36353384803438        3.21988856379327       -0.37597317977661
H           -1.31182959360894        1.55166154873744       -0.68296908721575
C           -3.44017442592772        0.83894752565402       -2.07302786998587
O           -2.83332704879620        0.44831633608894       -1.05702152861579
N           -3.82107019499423        2.11098246332951       -2.20864756498229
H           -3.60764789976936        2.78675259957124       -1.46273683869975
H           -4.30087508735190        2.43590225743329       -3.02713513398803
N           -3.70990679671304       -0.01790115735469       -3.07878571453534
H           -4.24205361656970        0.26501322895193       -3.88502406818500
H           -3.45355899995703       -0.98106523768903       -2.97681407137221
C           -3.69570794107091        3.28354542614143        1.03301126906020
O           -3.29136450644849        3.77042742934323       -0.02471532387264
N           -4.09587321846633        4.07123262827437        2.06014373428196
H           -4.18050949943371        5.05158042024505        1.89873979977796
H           -4.54778990680820        3.68457348065199        2.88041641929566
N           -3.72663736400126        1.95437308141279        1.23964432303384
H           -4.04787846092180        1.55259120322311        2.10480867502775
H           -3.39762205253554        1.33071418283941        0.50596989419892
