 xtb: 6.6.1 (unknown-commit)
          01102418243D

 53 48  0     0  0            999 V2000
   -1.9296   -2.0420   -1.5335 O   0  0  0  0  0  0  0  0  0  0  0  0
   -0.5341   -2.0150   -1.5250 C   0  0  0  0  0  0  0  0  0  0  0  0
   -0.2216   -2.9899   -1.9101 H   0  0  0  0  0  0  0  0  0  0  0  0
   -0.1573   -1.2296   -2.1949 H   0  0  0  0  0  0  0  0  0  0  0  0
   -0.0259   -1.7856   -0.0893 C   0  0  0  0  0  0  0  0  0  0  0  0
   -0.6141   -2.4296    0.5692 H   0  0  0  0  0  0  0  0  0  0  0  0
   -0.2065   -0.7401    0.1825 H   0  0  0  0  0  0  0  0  0  0  0  0
    1.4123   -2.0505    0.1577 N   0  0  0  0  0  0  0  0  0  0  0  0
    1.7127   -1.6824    1.5538 C   0  0  0  0  0  0  0  0  0  0  0  0
    2.7670   -1.8789    1.7427 H   0  0  0  0  0  0  0  0  0  0  0  0
    1.1034   -2.2696    2.2371 H   0  0  0  0  0  0  0  0  0  0  0  0
    1.5017   -0.6230    1.6910 H   0  0  0  0  0  0  0  0  0  0  0  0
    2.2557   -1.2136   -0.7114 C   0  0  0  0  0  0  0  0  0  0  0  0
    2.1025   -1.4722   -1.7555 H   0  0  0  0  0  0  0  0  0  0  0  0
    3.2980   -1.3832   -0.4460 H   0  0  0  0  0  0  0  0  0  0  0  0
    1.9963   -0.1689   -0.5435 H   0  0  0  0  0  0  0  0  0  0  0  0
    1.7582   -3.4664   -0.0396 C   0  0  0  0  0  0  0  0  0  0  0  0
    1.6208   -3.7547   -1.0784 H   0  0  0  0  0  0  0  0  0  0  0  0
    1.1337   -4.0971    0.5899 H   0  0  0  0  0  0  0  0  0  0  0  0
    2.8049   -3.6036    0.2319 H   0  0  0  0  0  0  0  0  0  0  0  0
   -2.2661   -1.1633   -1.2340 H   0  0  0  0  0  0  0  0  0  0  0  0
    5.8032   -2.8635    1.1276 C   0  0  0  0  0  0  0  0  0  0  0  0
    4.6243   -2.6658    0.8638 O   0  0  0  0  0  0  0  0  0  0  0  0
    6.3228   -2.6009    2.3498 N   0  0  0  0  0  0  0  0  0  0  0  0
    5.7416   -2.1577    3.0381 H   0  0  0  0  0  0  0  0  0  0  0  0
    7.3034   -2.6879    2.5431 H   0  0  0  0  0  0  0  0  0  0  0  0
    6.6720   -3.3612    0.2166 N   0  0  0  0  0  0  0  0  0  0  0  0
    7.6188   -3.5950    0.4522 H   0  0  0  0  0  0  0  0  0  0  0  0
    6.3234   -3.6417   -0.6821 H   0  0  0  0  0  0  0  0  0  0  0  0
    0.2261    2.2191    0.4556 C   0  0  0  0  0  0  0  0  0  0  0  0
    0.7550    1.1270    0.6537 O   0  0  0  0  0  0  0  0  0  0  0  0
    0.6641    3.3451    1.0764 N   0  0  0  0  0  0  0  0  0  0  0  0
    1.5307    3.3054    1.5827 H   0  0  0  0  0  0  0  0  0  0  0  0
    0.3179    4.2469    0.8027 H   0  0  0  0  0  0  0  0  0  0  0  0
   -0.8007    2.3810   -0.4031 N   0  0  0  0  0  0  0  0  0  0  0  0
   -1.3643    3.2195   -0.3734 H   0  0  0  0  0  0  0  0  0  0  0  0
   -1.3116    1.5516   -0.6819 H   0  0  0  0  0  0  0  0  0  0  0  0
   -3.4382    0.8434   -2.0749 C   0  0  0  0  0  0  0  0  0  0  0  0
   -2.8328    0.4499   -1.0595 O   0  0  0  0  0  0  0  0  0  0  0  0
   -3.8195    2.1161   -2.2067 N   0  0  0  0  0  0  0  0  0  0  0  0
   -3.6076    2.7874   -1.4615 H   0  0  0  0  0  0  0  0  0  0  0  0
   -4.3001    2.4380   -3.0266 H   0  0  0  0  0  0  0  0  0  0  0  0
   -3.7056   -0.0096   -3.0843 N   0  0  0  0  0  0  0  0  0  0  0  0
   -4.2405    0.2680   -3.8865 H   0  0  0  0  0  0  0  0  0  0  0  0
   -3.4523   -0.9789   -2.9792 H   0  0  0  0  0  0  0  0  0  0  0  0
   -3.6995    3.2779    1.0386 C   0  0  0  0  0  0  0  0  0  0  0  0
   -3.2935    3.7680   -0.0156 O   0  0  0  0  0  0  0  0  0  0  0  0
   -4.1032    4.0613    2.0677 N   0  0  0  0  0  0  0  0  0  0  0  0
   -4.1825    5.0491    1.9017 H   0  0  0  0  0  0  0  0  0  0  0  0
   -4.5501    3.6811    2.8819 H   0  0  0  0  0  0  0  0  0  0  0  0
   -3.7299    1.9475    1.2412 N   0  0  0  0  0  0  0  0  0  0  0  0
   -4.0495    1.5499    2.1046 H   0  0  0  0  0  0  0  0  0  0  0  0
   -3.3981    1.3296    0.5059 H   0  0  0  0  0  0  0  0  0  0  0  0
  1  2  1  0  0  0  0
  2  3  1  0  0  0  0
  2  4  1  0  0  0  0
  2  5  1  0  0  0  0
  5  6  1  0  0  0  0
  5  7  1  0  0  0  0
  5  8  1  0  0  0  0
  8  9  1  0  0  0  0
  9 10  1  0  0  0  0
  9 11  1  0  0  0  0
  9 12  1  0  0  0  0
  8 13  1  0  0  0  0
 13 14  1  0  0  0  0
 13 15  1  0  0  0  0
 13 16  1  0  0  0  0
  8 17  1  0  0  0  0
 17 18  1  0  0  0  0
 17 19  1  0  0  0  0
 17 20  1  0  0  0  0
  1 21  1  0  0  0  0
 22 23  2  0  0  0  0
 22 24  4  0  0  0  0
 24 25  1  0  0  0  0
 24 26  1  0  0  0  0
 22 27  4  0  0  0  0
 27 28  1  0  0  0  0
 27 29  1  0  0  0  0
 30 31  2  0  0  0  0
 30 32  1  0  0  0  0
 32 33  1  0  0  0  0
 32 34  1  0  0  0  0
 30 35  4  0  0  0  0
 35 36  1  0  0  0  0
 35 37  1  0  0  0  0
 38 39  4  0  0  0  0
 38 40  4  0  0  0  0
 40 41  1  0  0  0  0
 40 42  1  0  0  0  0
 38 43  4  0  0  0  0
 43 44  1  0  0  0  0
 43 45  1  0  0  0  0
 46 47  4  0  0  0  0
 46 48  4  0  0  0  0
 48 49  1  0  0  0  0
 48 50  1  0  0  0  0
 46 51  4  0  0  0  0
 51 52  1  0  0  0  0
 51 53  1  0  0  0  0
M  CHG  1   1   1
M  END
