 xtb: 6.6.1 (unknown-commit)
          01102418243D

 53 48  0     0  0            999 V2000
    1.3039    1.3471    1.1120 O   0  0  0  0  0  0  0  0  0  0  0  0
    1.4055    0.6488   -0.1024 C   0  0  0  0  0  0  0  0  0  0  0  0
    2.3572    0.8920   -0.5918 H   0  0  0  0  0  0  0  0  0  0  0  0
    1.4006   -0.4161    0.1341 H   0  0  0  0  0  0  0  0  0  0  0  0
    0.2240    1.0484   -1.0042 C   0  0  0  0  0  0  0  0  0  0  0  0
    0.4030    2.0721   -1.3441 H   0  0  0  0  0  0  0  0  0  0  0  0
   -0.6851    1.0474   -0.3999 H   0  0  0  0  0  0  0  0  0  0  0  0
   -0.0339    0.1854   -2.1833 N   0  0  0  0  0  0  0  0  0  0  0  0
    1.1918    0.0022   -2.9740 C   0  0  0  0  0  0  0  0  0  0  0  0
    1.6445    0.9663   -3.1982 H   0  0  0  0  0  0  0  0  0  0  0  0
    0.9574   -0.5055   -3.9080 H   0  0  0  0  0  0  0  0  0  0  0  0
    1.8931   -0.6111   -2.4108 H   0  0  0  0  0  0  0  0  0  0  0  0
   -1.0793    0.8421   -2.9866 C   0  0  0  0  0  0  0  0  0  0  0  0
   -0.7480    1.8253   -3.3153 H   0  0  0  0  0  0  0  0  0  0  0  0
   -1.9758    0.9474   -2.3745 H   0  0  0  0  0  0  0  0  0  0  0  0
   -1.3152    0.2376   -3.8604 H   0  0  0  0  0  0  0  0  0  0  0  0
   -0.5405   -1.1338   -1.7657 C   0  0  0  0  0  0  0  0  0  0  0  0
   -0.7950   -1.7211   -2.6451 H   0  0  0  0  0  0  0  0  0  0  0  0
   -1.4304   -0.9988   -1.1549 H   0  0  0  0  0  0  0  0  0  0  0  0
    0.2201   -1.6696   -1.1967 H   0  0  0  0  0  0  0  0  0  0  0  0
    1.3011    2.3046    0.8682 H   0  0  0  0  0  0  0  0  0  0  0  0
    1.8428   -3.6051    0.0201 C   0  0  0  0  0  0  0  0  0  0  0  0
    1.8390   -2.4876   -0.4880 O   0  0  0  0  0  0  0  0  0  0  0  0
    0.8911   -4.0117    0.8880 N   0  0  0  0  0  0  0  0  0  0  0  0
    0.0501   -3.4418    1.0045 H   0  0  0  0  0  0  0  0  0  0  0  0
    0.8336   -4.9773    1.1584 H   0  0  0  0  0  0  0  0  0  0  0  0
    2.8246   -4.5027   -0.2543 N   0  0  0  0  0  0  0  0  0  0  0  0
    2.9103   -5.3647    0.2529 H   0  0  0  0  0  0  0  0  0  0  0  0
    3.6167   -4.1891   -0.7862 H   0  0  0  0  0  0  0  0  0  0  0  0
    2.1492    4.6460    0.6675 C   0  0  0  0  0  0  0  0  0  0  0  0
    1.4280    3.8325    0.0974 O   0  0  0  0  0  0  0  0  0  0  0  0
    2.8869    4.3134    1.7518 N   0  0  0  0  0  0  0  0  0  0  0  0
    2.8807    3.3606    2.0718 H   0  0  0  0  0  0  0  0  0  0  0  0
    3.5145    4.9610    2.1912 H   0  0  0  0  0  0  0  0  0  0  0  0
    2.2648    5.9223    0.2394 N   0  0  0  0  0  0  0  0  0  0  0  0
    2.7799    6.6141    0.7522 H   0  0  0  0  0  0  0  0  0  0  0  0
    1.6687    6.2297   -0.5082 H   0  0  0  0  0  0  0  0  0  0  0  0
   -0.6823   -1.1753    1.8765 C   0  0  0  0  0  0  0  0  0  0  0  0
   -1.1965   -2.1831    1.3748 O   0  0  0  0  0  0  0  0  0  0  0  0
   -1.2679    0.0347    1.8122 N   0  0  0  0  0  0  0  0  0  0  0  0
   -2.0326    0.1636    1.1565 H   0  0  0  0  0  0  0  0  0  0  0  0
   -0.7363    0.8442    2.0858 H   0  0  0  0  0  0  0  0  0  0  0  0
    0.4719   -1.2375    2.5784 N   0  0  0  0  0  0  0  0  0  0  0  0
    0.9822   -0.3899    2.7589 H   0  0  0  0  0  0  0  0  0  0  0  0
    0.9848   -2.1025    2.5687 H   0  0  0  0  0  0  0  0  0  0  0  0
   -3.9743   -0.6152   -0.2501 C   0  0  0  0  0  0  0  0  0  0  0  0
   -3.0484    0.1821   -0.4362 O   0  0  0  0  0  0  0  0  0  0  0  0
   -3.7821   -1.7916    0.3631 N   0  0  0  0  0  0  0  0  0  0  0  0
   -2.8584   -2.0182    0.7451 H   0  0  0  0  0  0  0  0  0  0  0  0
   -4.5438   -2.4192    0.5430 H   0  0  0  0  0  0  0  0  0  0  0  0
   -5.2222   -0.3569   -0.7134 N   0  0  0  0  0  0  0  0  0  0  0  0
   -6.0043   -0.9354   -0.4660 H   0  0  0  0  0  0  0  0  0  0  0  0
   -5.4123    0.5572   -1.0837 H   0  0  0  0  0  0  0  0  0  0  0  0
  1  2  1  0  0  0  0
  2  3  1  0  0  0  0
  2  4  1  0  0  0  0
  2  5  1  0  0  0  0
  5  6  1  0  0  0  0
  5  7  1  0  0  0  0
  5  8  1  0  0  0  0
  8  9  1  0  0  0  0
  9 10  1  0  0  0  0
  9 11  1  0  0  0  0
  9 12  1  0  0  0  0
  8 13  1  0  0  0  0
 13 14  1  0  0  0  0
 13 15  1  0  0  0  0
 13 16  1  0  0  0  0
  8 17  1  0  0  0  0
 17 18  1  0  0  0  0
 17 19  1  0  0  0  0
 17 20  1  0  0  0  0
  1 21  1  0  0  0  0
 22 23  2  0  0  0  0
 22 24  4  0  0  0  0
 24 25  1  0  0  0  0
 24 26  1  0  0  0  0
 22 27  1  0  0  0  0
 27 28  1  0  0  0  0
 27 29  1  0  0  0  0
 30 31  2  0  0  0  0
 30 32  4  0  0  0  0
 32 33  1  0  0  0  0
 32 34  1  0  0  0  0
 30 35  4  0  0  0  0
 35 36  1  0  0  0  0
 35 37  1  0  0  0  0
 38 39  4  0  0  0  0
 38 40  4  0  0  0  0
 40 41  1  0  0  0  0
 40 42  1  0  0  0  0
 38 43  4  0  0  0  0
 43 44  1  0  0  0  0
 43 45  1  0  0  0  0
 46 47  4  0  0  0  0
 46 48  4  0  0  0  0
 48 49  1  0  0  0  0
 48 50  1  0  0  0  0
 46 51  4  0  0  0  0
 51 52  1  0  0  0  0
 51 53  1  0  0  0  0
M  CHG  1   1   1
M  END
