 xtb: 6.6.1 (unknown-commit)
          01102418243D

 53 48  0     0  0            999 V2000
   -0.1260   -1.0239    2.2205 O   0  0  0  0  0  0  0  0  0  0  0  0
   -0.8925   -1.0783    1.0468 C   0  0  0  0  0  0  0  0  0  0  0  0
   -1.5756   -1.9216    1.1630 H   0  0  0  0  0  0  0  0  0  0  0  0
   -1.5013   -0.1738    0.9428 H   0  0  0  0  0  0  0  0  0  0  0  0
   -0.0262   -1.1935   -0.2133 C   0  0  0  0  0  0  0  0  0  0  0  0
    0.9153   -0.6803   -0.0139 H   0  0  0  0  0  0  0  0  0  0  0  0
   -0.5392   -0.7215   -1.0552 H   0  0  0  0  0  0  0  0  0  0  0  0
    0.3373   -2.5688   -0.6478 N   0  0  0  0  0  0  0  0  0  0  0  0
    1.0128   -3.2883    0.4415 C   0  0  0  0  0  0  0  0  0  0  0  0
    1.9325   -2.7604    0.6894 H   0  0  0  0  0  0  0  0  0  0  0  0
    1.2503   -4.3038    0.1308 H   0  0  0  0  0  0  0  0  0  0  0  0
    0.3833   -3.3166    1.3274 H   0  0  0  0  0  0  0  0  0  0  0  0
    1.2655   -2.4247   -1.7831 C   0  0  0  0  0  0  0  0  0  0  0  0
    2.1576   -1.8934   -1.4539 H   0  0  0  0  0  0  0  0  0  0  0  0
    0.7725   -1.8627   -2.5744 H   0  0  0  0  0  0  0  0  0  0  0  0
    1.5519   -3.4047   -2.1596 H   0  0  0  0  0  0  0  0  0  0  0  0
   -0.8563   -3.2944   -1.1066 C   0  0  0  0  0  0  0  0  0  0  0  0
   -1.5353   -3.4803   -0.2786 H   0  0  0  0  0  0  0  0  0  0  0  0
   -0.5682   -4.2498   -1.5407 H   0  0  0  0  0  0  0  0  0  0  0  0
   -1.3639   -2.6900   -1.8586 H   0  0  0  0  0  0  0  0  0  0  0  0
    0.3708   -0.1918    2.1959 H   0  0  0  0  0  0  0  0  0  0  0  0
    3.6638   -0.7017    1.5234 C   0  0  0  0  0  0  0  0  0  0  0  0
    3.2078   -0.8883    0.3917 O   0  0  0  0  0  0  0  0  0  0  0  0
    3.2114    0.2830    2.3148 N   0  0  0  0  0  0  0  0  0  0  0  0
    2.4169    0.8386    1.9965 H   0  0  0  0  0  0  0  0  0  0  0  0
    3.5396    0.3964    3.2558 H   0  0  0  0  0  0  0  0  0  0  0  0
    4.6244   -1.5113    2.0359 N   0  0  0  0  0  0  0  0  0  0  0  0
    5.0974   -1.2767    2.8901 H   0  0  0  0  0  0  0  0  0  0  0  0
    5.0892   -2.1466    1.4108 H   0  0  0  0  0  0  0  0  0  0  0  0
    1.0616    1.8583    0.0080 C   0  0  0  0  0  0  0  0  0  0  0  0
    0.9200    1.4931    1.1891 O   0  0  0  0  0  0  0  0  0  0  0  0
    2.1805    1.5530   -0.6792 N   0  0  0  0  0  0  0  0  0  0  0  0
    2.7869    0.8232   -0.3168 H   0  0  0  0  0  0  0  0  0  0  0  0
    2.2691    1.8015   -1.6477 H   0  0  0  0  0  0  0  0  0  0  0  0
    0.1290    2.5945   -0.6154 N   0  0  0  0  0  0  0  0  0  0  0  0
    0.2238    2.7990   -1.5942 H   0  0  0  0  0  0  0  0  0  0  0  0
   -0.8151    2.6032   -0.2250 H   0  0  0  0  0  0  0  0  0  0  0  0
   -2.3128    0.1797   -3.1797 C   0  0  0  0  0  0  0  0  0  0  0  0
   -1.4759   -0.6191   -2.7688 O   0  0  0  0  0  0  0  0  0  0  0  0
   -2.8441    0.0624   -4.4229 N   0  0  0  0  0  0  0  0  0  0  0  0
   -2.4712   -0.6369   -5.0395 H   0  0  0  0  0  0  0  0  0  0  0  0
   -3.4560    0.7569   -4.8102 H   0  0  0  0  0  0  0  0  0  0  0  0
   -2.7541    1.2265   -2.4517 N   0  0  0  0  0  0  0  0  0  0  0  0
   -3.5126    1.7921   -2.7881 H   0  0  0  0  0  0  0  0  0  0  0  0
   -2.5285    1.3184   -1.4708 H   0  0  0  0  0  0  0  0  0  0  0  0
   -2.5657    2.2571    1.5717 C   0  0  0  0  0  0  0  0  0  0  0  0
   -2.4261    2.0789    0.3580 O   0  0  0  0  0  0  0  0  0  0  0  0
   -1.5172    2.2772    2.4100 N   0  0  0  0  0  0  0  0  0  0  0  0
   -0.5871    2.0733    2.0432 H   0  0  0  0  0  0  0  0  0  0  0  0
   -1.6372    2.3774    3.4008 H   0  0  0  0  0  0  0  0  0  0  0  0
   -3.7938    2.4171    2.1194 N   0  0  0  0  0  0  0  0  0  0  0  0
   -3.9132    2.6740    3.0822 H   0  0  0  0  0  0  0  0  0  0  0  0
   -4.5814    2.5130    1.5035 H   0  0  0  0  0  0  0  0  0  0  0  0
  1  2  1  0  0  0  0
  2  3  1  0  0  0  0
  2  4  1  0  0  0  0
  2  5  1  0  0  0  0
  5  6  1  0  0  0  0
  5  7  1  0  0  0  0
  5  8  1  0  0  0  0
  8  9  1  0  0  0  0
  9 10  1  0  0  0  0
  9 11  1  0  0  0  0
  9 12  1  0  0  0  0
  8 13  1  0  0  0  0
 13 14  1  0  0  0  0
 13 15  1  0  0  0  0
 13 16  1  0  0  0  0
  8 17  1  0  0  0  0
 17 18  1  0  0  0  0
 17 19  1  0  0  0  0
 17 20  1  0  0  0  0
  1 21  1  0  0  0  0
 22 23  4  0  0  0  0
 22 24  4  0  0  0  0
 24 25  1  0  0  0  0
 24 26  1  0  0  0  0
 22 27  4  0  0  0  0
 27 28  1  0  0  0  0
 27 29  1  0  0  0  0
 30 31  4  0  0  0  0
 30 32  4  0  0  0  0
 32 33  1  0  0  0  0
 32 34  1  0  0  0  0
 30 35  4  0  0  0  0
 35 36  1  0  0  0  0
 35 37  1  0  0  0  0
 38 39  2  0  0  0  0
 38 40  4  0  0  0  0
 40 41  1  0  0  0  0
 40 42  1  0  0  0  0
 38 43  4  0  0  0  0
 43 44  1  0  0  0  0
 43 45  1  0  0  0  0
 46 47  4  0  0  0  0
 46 48  4  0  0  0  0
 48 49  1  0  0  0  0
 48 50  1  0  0  0  0
 46 51  4  0  0  0  0
 51 52  1  0  0  0  0
 51 53  1  0  0  0  0
M  CHG  1   1   1
M  END
