53
 xtb: 6.6.1 (unknown-commit)
O            0.69393567682362       -0.93632050972645       -1.37832959522514
C            0.96472502454586       -2.16622442320028       -0.77957105789335
H            0.85223258927723       -2.92717850244269       -1.56224861810740
H            2.00471580339002       -2.21134283162920       -0.42674975850075
C            0.08550480691335       -2.49016743199196        0.43849468311489
H            0.25673384880879       -1.75083263174411        1.22209300373751
H            0.38488303628588       -3.47449465184487        0.80471421666160
N           -1.38230502211360       -2.51404397580545        0.19992019550306
C           -2.03363482079631       -3.08055852589317        1.39322653594271
H           -1.76495151320130       -2.47881148866241        2.25514088754585
H           -1.71403624231387       -4.10926802600948        1.54207264266681
H           -3.11254198185475       -3.05605963834071        1.23759243974942
C           -1.74332345831817       -3.32151180434376       -0.97415119800694
H           -2.83139645936575       -3.37718155990604       -1.03129509864003
H           -1.32982277888236       -4.32087332172981       -0.89164120321703
H           -1.37084276205795       -2.84654444525158       -1.88388823278045
C           -1.89807564104030       -1.14528479312728        0.01774986166896
H           -1.42708225502284       -0.68511657119486       -0.85018645304978
H           -1.66196744258882       -0.56385706337321        0.90783726815154
H           -2.97449066389680       -1.19465880408312       -0.12157049363200
H            0.90791400866234       -0.22354263073931       -0.72333218804716
C            4.99855216893864        4.59129617907988       -2.58100964000584
O            4.14823334194330        3.95994186516617       -1.96917078863319
N            5.02314740748899        5.94527146953084       -2.59272285163078
H            4.23882801177694        6.43886967109379       -2.18352427726909
H            5.63350680330051        6.46463685286223       -3.19064579455259
N            5.97866421693552        3.97911189420096       -3.29103857419476
H            6.74038536462280        4.50150116971627       -3.68330419933145
H            6.07630284653473        2.98970366590549       -3.20182391938044
C            2.20367048530081        1.76938194606635       -0.28214048033352
O            1.43670820306345        0.99146707143492        0.30638773150958
N            2.69973197013895        2.87400906223005        0.30569121096283
H            2.36036388677649        3.15250944960481        1.21011798841670
H            3.25148589449414        3.50993071751144       -0.24513949165852
N            2.63652586414981        1.54214241056656       -1.53277127294572
H            3.19438788679124        2.25324065689782       -1.98574030116026
H            2.25171602068648        0.77798540400518       -2.05910381566080
C           -5.93204256039624       -2.72310607559681       -0.38495827782608
O           -4.71931125825326       -2.71392577408288       -0.22874241374108
N           -6.54928688926033       -1.91562165969723       -1.29551576132766
H           -5.97004113568077       -1.53394095876461       -2.04067570114953
H           -7.52304607247871       -2.09924272602649       -1.55774630876309
N           -6.74776212904444       -3.54220588231047        0.34025323938323
H           -7.75642154809383       -3.37327617216726        0.34856925646856
H           -6.36644249684300       -3.91199799846566        1.20996996393184
C           -0.03681280489331        0.07234691632541        3.57205820333626
O           -0.62756668475443       -0.74864730217245        2.88086576911668
N            0.74207231441660        1.03814410246503        3.04488762646895
H            0.96128242358275        1.00219470915405        2.04815536048828
H            1.32816962271765        1.59131768534959        3.64228826155281
N           -0.12920404752436        0.05340859549428        4.93075989569441
H            0.21749781950248        0.80559658813602        5.49005796144543
H           -0.80707582848777       -0.56392330161063        5.34435991342519
