  53

 O         -2.4009060400        0.7737591320        2.1199694704
 C         -1.0075263433        0.8297964456        2.2435472403
 H         -0.7651407614        1.8652726921        2.4929072575
 H         -0.6668085012        0.1997519381        3.0772873448
 C         -0.2558885888        0.3473822340        0.9985761182
 H         -0.6763177960       -0.6185798953        0.7169779357
 H          0.8025382557        0.2111525611        1.2339382922
 N         -0.3197993551        1.2322119895       -0.1931329323
 C         -1.7049576057        1.5454307243       -0.5735646513
 H         -2.2469385260        0.6244870971       -0.7787753143
 H         -1.6864474099        2.1667397527       -1.4676168450
 H         -2.2122209653        2.0679289568        0.2336641464
 C          0.3314912638        0.5322839961       -1.3133443270
 H         -0.1877366930       -0.4001960106       -1.5242204614
 H          1.3627357871        0.3176850709       -1.0388399783
 H          0.3044491775        1.1776596283       -2.1896319183
 C          0.4225379883        2.4798008731        0.0440667758
 H          1.4458280697        2.2330418825        0.3213644873
 H         -0.0448582001        3.0561454950        0.8376966459
 H          0.4168247193        3.0635683025       -0.8752932282
 H         -2.6601325560       -0.1359769926        1.8956827773
 C          3.6758522882       -0.5460193008        0.5540371156
 O          2.8051073903        0.3146541486        0.5833247987
 N          4.9716241078       -0.2388013100        0.2799592454
 H          5.2245494579        0.7334493115        0.2550268971
 H          5.7094338038       -0.9061989894        0.4154856952
 N          3.4139927698       -1.8533663232        0.7863112708
 H          4.1016272155       -2.5491426971        0.5572665644
 H          2.4402252323       -2.1513457710        0.8346199654
 C         -0.3867303861        3.9876371081       -3.8503061556
 O         -0.3783998253        3.1731471920       -2.9381428280
 N         -0.4779237409        5.3213124294       -3.6275149729
 H         -0.6495261122        5.6418775053       -2.6914285179
 H         -0.5934459775        5.9780006109       -4.3774441197
 N         -0.3046732312        3.6172408910       -5.1510360312
 H         -0.2042231370        4.2888643389       -5.8897627911
 H         -0.1318769155        2.6513945528       -5.3642763176
 C          0.5159025466       -2.8247986869        2.4816799567
 O          0.7440584762       -2.7192473060        1.2710371480
 N         -0.7116212280       -2.6498446890        2.9913958685
 H         -1.4815523012       -2.4061199711        2.3681927701
 H         -0.9007588121       -2.7760756433        3.9684840448
 N          1.5064028210       -3.1148701778        3.3552980042
 H          1.3448861594       -3.1834932563        4.3429188383
 H          2.4448675501       -3.2131395420        3.0124234562
 C         -2.5844359480       -2.5063037021        0.0281355048
 O         -2.6225233629       -1.8793852254        1.0895735293
 N         -3.7069941292       -2.7247670248       -0.6944577702
 H         -4.5884105460       -2.4664329223       -0.2862535433
 H         -3.7155504442       -3.3244558531       -1.4993732371
 N         -1.4165033774       -2.9119572019       -0.5120600148
 H         -1.4122410780       -3.5576972574       -1.2817812816
 H         -0.5806734136       -2.8830552966        0.0817102037
