 xtb: 6.6.1 (unknown-commit)
          01102414373D

 53 48  0     0  0            999 V2000
    0.0865    0.1154    3.7599 o   0  0  0  0  0  0  0  0  0  0  0  0
    0.9638    0.7202    2.8284 c   0  0  0  0  0  0  0  0  0  0  0  0
    0.8794    1.8128    2.8735 h   0  0  0  0  0  0  0  0  0  0  0  0
    2.0043    0.4544    3.0543 h   0  0  0  0  0  0  0  0  0  0  0  0
    0.6898    0.2293    1.4087 c   0  0  0  0  0  0  0  0  0  0  0  0
    0.9053   -0.8373    1.3367 h   0  0  0  0  0  0  0  0  0  0  0  0
    1.3562    0.7881    0.7479 h   0  0  0  0  0  0  0  0  0  0  0  0
   -0.6939    0.4243    0.9070 n   0  0  0  0  0  0  0  0  0  0  0  0
   -1.5959   -0.6027    1.4500 c   0  0  0  0  0  0  0  0  0  0  0  0
   -1.2346   -1.5827    1.1450 h   0  0  0  0  0  0  0  0  0  0  0  0
   -2.5946   -0.4332    1.0522 h   0  0  0  0  0  0  0  0  0  0  0  0
   -1.6040   -0.5447    2.5350 h   0  0  0  0  0  0  0  0  0  0  0  0
   -0.6609    0.2876   -0.5576 c   0  0  0  0  0  0  0  0  0  0  0  0
   -0.2148   -0.6665   -0.8269 h   0  0  0  0  0  0  0  0  0  0  0  0
   -0.0525    1.0853   -0.9767 h   0  0  0  0  0  0  0  0  0  0  0  0
   -1.6786    0.3502   -0.9374 h   0  0  0  0  0  0  0  0  0  0  0  0
   -1.2162    1.7585    1.2339 c   0  0  0  0  0  0  0  0  0  0  0  0
   -0.5108    2.5097    0.8828 h   0  0  0  0  0  0  0  0  0  0  0  0
   -1.3619    1.8486    2.3070 h   0  0  0  0  0  0  0  0  0  0  0  0
   -2.1759    1.8811    0.7352 h   0  0  0  0  0  0  0  0  0  0  0  0
    0.3852    0.3143    4.6524 h   0  0  0  0  0  0  0  0  0  0  0  0
    2.1066    3.2836   -0.9551 c   0  0  0  0  0  0  0  0  0  0  0  0
    1.3552    2.8806   -0.0779 o   0  0  0  0  0  0  0  0  0  0  0  0
    2.2551    4.6142   -1.2142 n   0  0  0  0  0  0  0  0  0  0  0  0
    1.8614    5.2596   -0.5521 h   0  0  0  0  0  0  0  0  0  0  0  0
    3.0076    4.9491   -1.7887 h   0  0  0  0  0  0  0  0  0  0  0  0
    2.8331    2.4468   -1.7287 n   0  0  0  0  0  0  0  0  0  0  0  0
    3.2865    2.7936   -2.5550 h   0  0  0  0  0  0  0  0  0  0  0  0
    2.6268    1.4485   -1.6757 h   0  0  0  0  0  0  0  0  0  0  0  0
   -4.8893    1.1252   -0.8658 c   0  0  0  0  0  0  0  0  0  0  0  0
   -3.8189    0.8104   -0.3701 o   0  0  0  0  0  0  0  0  0  0  0  0
   -4.9745    1.9447   -1.9438 n   0  0  0  0  0  0  0  0  0  0  0  0
   -4.1245    2.2089   -2.4090 h   0  0  0  0  0  0  0  0  0  0  0  0
   -5.8424    2.1041   -2.4215 h   0  0  0  0  0  0  0  0  0  0  0  0
   -6.0743    0.6777   -0.3788 n   0  0  0  0  0  0  0  0  0  0  0  0
   -6.9504    1.0502   -0.6968 h   0  0  0  0  0  0  0  0  0  0  0  0
   -6.0674    0.1756    0.4912 h   0  0  0  0  0  0  0  0  0  0  0  0
   -0.0468   -4.0993    0.0413 c   0  0  0  0  0  0  0  0  0  0  0  0
    0.3197   -2.9765    0.3714 o   0  0  0  0  0  0  0  0  0  0  0  0
    0.4786   -4.7409   -1.0282 n   0  0  0  0  0  0  0  0  0  0  0  0
    1.0984   -4.2293   -1.6326 h   0  0  0  0  0  0  0  0  0  0  0  0
    0.0969   -5.6060   -1.3650 h   0  0  0  0  0  0  0  0  0  0  0  0
   -1.0064   -4.7671    0.7240 n   0  0  0  0  0  0  0  0  0  0  0  0
   -1.2156   -5.7301    0.5330 h   0  0  0  0  0  0  0  0  0  0  0  0
   -1.3169   -4.3857    1.6005 h   0  0  0  0  0  0  0  0  0  0  0  0
    3.1978   -1.1533   -1.2021 c   0  0  0  0  0  0  0  0  0  0  0  0
    2.3394   -0.3176   -1.4499 o   0  0  0  0  0  0  0  0  0  0  0  0
    4.5171   -0.9258   -1.4458 n   0  0  0  0  0  0  0  0  0  0  0  0
    4.7688   -0.1025   -1.9635 h   0  0  0  0  0  0  0  0  0  0  0  0
    5.1967   -1.6621   -1.3849 h   0  0  0  0  0  0  0  0  0  0  0  0
    2.8947   -2.3658   -0.6809 n   0  0  0  0  0  0  0  0  0  0  0  0
    3.6260   -2.9444   -0.3063 h   0  0  0  0  0  0  0  0  0  0  0  0
    1.9597   -2.4900   -0.2939 h   0  0  0  0  0  0  0  0  0  0  0  0
  1  2  1  0  0  0  0
  2  3  1  0  0  0  0
  2  4  1  0  0  0  0
  2  5  1  0  0  0  0
  5  6  1  0  0  0  0
  5  7  1  0  0  0  0
  5  8  1  0  0  0  0
  8  9  1  0  0  0  0
  9 10  1  0  0  0  0
  9 11  1  0  0  0  0
  9 12  1  0  0  0  0
  8 13  1  0  0  0  0
 13 14  1  0  0  0  0
 13 15  1  0  0  0  0
 13 16  1  0  0  0  0
  8 17  1  0  0  0  0
 17 18  1  0  0  0  0
 17 19  1  0  0  0  0
 17 20  1  0  0  0  0
  1 21  1  0  0  0  0
 22 23  2  0  0  0  0
 22 24  1  0  0  0  0
 24 25  1  0  0  0  0
 24 26  1  0  0  0  0
 22 27  4  0  0  0  0
 27 28  1  0  0  0  0
 27 29  1  0  0  0  0
 30 31  2  0  0  0  0
 30 32  4  0  0  0  0
 32 33  1  0  0  0  0
 32 34  1  0  0  0  0
 30 35  1  0  0  0  0
 35 36  1  0  0  0  0
 35 37  1  0  0  0  0
 38 39  2  0  0  0  0
 38 40  4  0  0  0  0
 40 41  1  0  0  0  0
 40 42  1  0  0  0  0
 38 43  4  0  0  0  0
 43 44  1  0  0  0  0
 43 45  1  0  0  0  0
 46 47  2  0  0  0  0
 46 48  1  0  0  0  0
 48 49  1  0  0  0  0
 48 50  1  0  0  0  0
 46 51  4  0  0  0  0
 51 52  1  0  0  0  0
 51 53  1  0  0  0  0
M  CHG  1   1   1
M  END
