 xtb: 6.6.1 (unknown-commit)
          01102418343D

 53 48  0     0  0            999 V2000
    0.7738   -2.5923    3.3410 O   0  0  0  0  0  0  0  0  0  0  0  0
    0.0826   -1.3809    3.1064 C   0  0  0  0  0  0  0  0  0  0  0  0
   -0.9574   -1.4721    3.4472 H   0  0  0  0  0  0  0  0  0  0  0  0
    0.5484   -0.5555    3.6549 H   0  0  0  0  0  0  0  0  0  0  0  0
    0.1338   -0.9855    1.6282 C   0  0  0  0  0  0  0  0  0  0  0  0
    1.1531   -0.6737    1.3889 H   0  0  0  0  0  0  0  0  0  0  0  0
   -0.5582   -0.1523    1.4959 H   0  0  0  0  0  0  0  0  0  0  0  0
   -0.2610   -2.0449    0.6594 N   0  0  0  0  0  0  0  0  0  0  0  0
    0.8553   -2.9808    0.4507 C   0  0  0  0  0  0  0  0  0  0  0  0
    1.6979   -2.4493    0.0110 H   0  0  0  0  0  0  0  0  0  0  0  0
    0.5476   -3.7819   -0.2186 H   0  0  0  0  0  0  0  0  0  0  0  0
    1.1602   -3.3994    1.4069 H   0  0  0  0  0  0  0  0  0  0  0  0
   -0.5926   -1.3935   -0.6199 C   0  0  0  0  0  0  0  0  0  0  0  0
    0.2337   -0.7635   -0.9446 H   0  0  0  0  0  0  0  0  0  0  0  0
   -1.4741   -0.7674   -0.4767 H   0  0  0  0  0  0  0  0  0  0  0  0
   -0.7961   -2.1456   -1.3783 H   0  0  0  0  0  0  0  0  0  0  0  0
   -1.4510   -2.7669    1.1333 C   0  0  0  0  0  0  0  0  0  0  0  0
   -1.2118   -3.3322    2.0304 H   0  0  0  0  0  0  0  0  0  0  0  0
   -1.7935   -3.4555    0.3634 H   0  0  0  0  0  0  0  0  0  0  0  0
   -2.2357   -2.0392    1.3376 H   0  0  0  0  0  0  0  0  0  0  0  0
    1.0575   -2.6300    4.2585 H   0  0  0  0  0  0  0  0  0  0  0  0
    3.9441   -0.7158    0.6014 C   0  0  0  0  0  0  0  0  0  0  0  0
    3.2543   -0.2194    1.4882 O   0  0  0  0  0  0  0  0  0  0  0  0
    5.1234   -1.3176    0.8746 N   0  0  0  0  0  0  0  0  0  0  0  0
    5.4484   -1.3231    1.8247 H   0  0  0  0  0  0  0  0  0  0  0  0
    5.7113   -1.7082    0.1617 H   0  0  0  0  0  0  0  0  0  0  0  0
    3.5179   -0.7616   -0.6866 N   0  0  0  0  0  0  0  0  0  0  0  0
    4.1789   -0.9665   -1.4161 H   0  0  0  0  0  0  0  0  0  0  0  0
    2.7568   -0.1173   -0.9265 H   0  0  0  0  0  0  0  0  0  0  0  0
    1.0699    1.8781   -0.3142 C   0  0  0  0  0  0  0  0  0  0  0  0
    1.3376    0.9514   -1.1027 O   0  0  0  0  0  0  0  0  0  0  0  0
    1.8019    2.0726    0.7955 N   0  0  0  0  0  0  0  0  0  0  0  0
    2.4577    1.3493    1.0887 H   0  0  0  0  0  0  0  0  0  0  0  0
    1.5600    2.7910    1.4530 H   0  0  0  0  0  0  0  0  0  0  0  0
    0.0599    2.7245   -0.5598 N   0  0  0  0  0  0  0  0  0  0  0  0
   -0.1866    3.4347    0.1050 H   0  0  0  0  0  0  0  0  0  0  0  0
   -0.6071    2.5003   -1.3012 H   0  0  0  0  0  0  0  0  0  0  0  0
   -1.3249    1.3666   -3.4831 C   0  0  0  0  0  0  0  0  0  0  0  0
   -1.7953    1.8605   -2.4560 O   0  0  0  0  0  0  0  0  0  0  0  0
   -0.0835    0.8574   -3.5216 N   0  0  0  0  0  0  0  0  0  0  0  0
    0.5011    0.9218   -2.6851 H   0  0  0  0  0  0  0  0  0  0  0  0
    0.3205    0.5260   -4.3778 H   0  0  0  0  0  0  0  0  0  0  0  0
   -2.0651    1.2710   -4.6145 N   0  0  0  0  0  0  0  0  0  0  0  0
   -1.6628    0.9867   -5.4889 H   0  0  0  0  0  0  0  0  0  0  0  0
   -2.9631    1.7209   -4.6327 H   0  0  0  0  0  0  0  0  0  0  0  0
   -3.5762    0.9861    0.8037 C   0  0  0  0  0  0  0  0  0  0  0  0
   -2.6977    0.1453    0.9707 O   0  0  0  0  0  0  0  0  0  0  0  0
   -4.4775    1.2687    1.7841 N   0  0  0  0  0  0  0  0  0  0  0  0
   -4.5017    0.6714    2.5912 H   0  0  0  0  0  0  0  0  0  0  0  0
   -5.2863    1.8353    1.6033 H   0  0  0  0  0  0  0  0  0  0  0  0
   -3.7109    1.6889   -0.3359 N   0  0  0  0  0  0  0  0  0  0  0  0
   -4.3841    2.4305   -0.4038 H   0  0  0  0  0  0  0  0  0  0  0  0
   -3.0075    1.6349   -1.0639 H   0  0  0  0  0  0  0  0  0  0  0  0
  1  2  1  0  0  0  0
  2  3  1  0  0  0  0
  2  4  1  0  0  0  0
  2  5  1  0  0  0  0
  5  6  1  0  0  0  0
  5  7  1  0  0  0  0
  5  8  1  0  0  0  0
  8  9  1  0  0  0  0
  9 10  1  0  0  0  0
  9 11  1  0  0  0  0
  9 12  1  0  0  0  0
  8 13  1  0  0  0  0
 13 14  1  0  0  0  0
 13 15  1  0  0  0  0
 13 16  1  0  0  0  0
  8 17  1  0  0  0  0
 17 18  1  0  0  0  0
 17 19  1  0  0  0  0
 17 20  1  0  0  0  0
  1 21  1  0  0  0  0
 22 23  2  0  0  0  0
 22 24  4  0  0  0  0
 24 25  1  0  0  0  0
 24 26  1  0  0  0  0
 22 27  4  0  0  0  0
 27 28  1  0  0  0  0
 27 29  1  0  0  0  0
 30 31  4  0  0  0  0
 30 32  4  0  0  0  0
 32 33  1  0  0  0  0
 32 34  1  0  0  0  0
 30 35  4  0  0  0  0
 35 36  1  0  0  0  0
 35 37  1  0  0  0  0
 38 39  4  0  0  0  0
 38 40  4  0  0  0  0
 40 41  1  0  0  0  0
 40 42  1  0  0  0  0
 38 43  4  0  0  0  0
 43 44  1  0  0  0  0
 43 45  1  0  0  0  0
 46 47  2  0  0  0  0
 46 48  1  0  0  0  0
 48 49  1  0  0  0  0
 48 50  1  0  0  0  0
 46 51  4  0  0  0  0
 51 52  1  0  0  0  0
 51 53  1  0  0  0  0
M  CHG  1   1   1
M  END
