  53

 O          0.1566975169       -2.8970255390        1.0256804987
 C          1.4366939885       -2.7050790561        1.5504150798
 H          1.3767642802       -2.9755336142        2.6083025347
 H          2.1569172600       -3.3902674458        1.0762575882
 C          2.0146819097       -1.2938601353        1.3649784600
 H          2.0708114902       -1.0665181300        0.2960941123
 H          3.0251421316       -1.2936676839        1.7792385793
 N          1.2562927147       -0.1773850849        1.9860172220
 C         -0.0434031546       -0.0126848105        1.3162766746
 H          0.1311365304        0.1368328016        0.2539973503
 H         -0.5370020663        0.8649393433        1.7324837952
 H         -0.6580761919       -0.8948383622        1.4699307040
 C          2.0231623320        1.0654799824        1.7864120295
 H          2.1968450517        1.2063788899        0.7210774895
 H          2.9755897246        1.0125348831        2.3093008783
 H          1.4385702351        1.8990972838        2.1731692490
 C          1.0300024743       -0.3700881175        3.4244137661
 H          1.9761359135       -0.5190000239        3.9419372654
 H          0.3852937967       -1.2290578970        3.5940049824
 H          0.5378785575        0.5199518960        3.8147994801
 H          0.1464047574       -2.5995202145        0.0860960620
 C          0.6017267966       -2.9537895408       -2.3327341584
 O          0.1504906113       -2.0980410631       -1.5691061169
 N          1.1858986621       -2.6278974893       -3.5014685529
 H          1.4327650413       -1.6537119053       -3.6486119619
 H          1.6451204444       -3.3249818274       -4.0598864505
 N          0.5285428923       -4.2706590232       -2.0305205591
 H          0.8070983625       -4.9832243267       -2.6801131934
 H          0.0204665873       -4.5498506525       -1.2084423133
 C         -1.1577542862        3.5526068877        2.4113604528
 O         -0.5220393374        2.5855098698        2.8128743082
 N         -1.1848792467        4.7200560474        3.1067324096
 H         -0.7885692773        4.7238636018        4.0300466619
 H         -1.8194379937        5.4608433886        2.8694157564
 N         -1.8767185371        3.5338971824        1.2650444221
 H         -2.2335323353        4.3946936019        0.8895265330
 H         -1.7603186349        2.7644934301        0.6110612389
 C          1.3903501932        0.5994232278       -2.3764944828
 O          1.8667282175        0.4275087312       -1.2676759253
 N          2.0841292325        0.2102434302       -3.5198146644
 H          3.0773586401        0.0990808746       -3.3730976846
 H          1.8544140914        0.6852630867       -4.3798786317
 N          0.1745405052        1.1165018348       -2.5981827641
 H         -0.2017374583        1.1688111769       -3.5276056342
 H         -0.4672562702        1.2830824824       -1.8218117534
 C         -2.6695912676        0.4529044803       -0.6279443060
 O         -1.8532858047        1.3737892935       -0.6717829860
 N         -3.8999317253        0.6361937108       -0.0937147442
 H         -4.1691826456        1.5641833037        0.1807479081
 H         -4.6104283147       -0.0711598615       -0.1353754568
 N         -2.4009245852       -0.7785319356       -1.1040733489
 H         -3.0483839646       -1.5314555258       -0.9552684251
 H         -1.4528006706       -1.0334922683       -1.3533329488
