  53

 O          0.0556153548       -0.9389541965        2.3388209574
 C         -0.8721375162       -1.0636053262        1.2942106897
 H         -1.4777494398       -1.9423920540        1.5251373620
 H         -1.5439617291       -0.1998909009        1.2705732528
 C         -0.2034385240       -1.1576767614       -0.0817670824
 H          0.7169819763       -0.5713072458       -0.0408848561
 H         -0.8646978145       -0.7494762317       -0.8495454420
 N          0.1834420268       -2.5225746790       -0.5306370516
 C          1.0190472875       -3.1842625331        0.4809074810
 H          1.9168431991       -2.5858999179        0.6289370930
 H          1.2953407389       -4.1814055132        0.1442147101
 H          0.4910873792       -3.2544657960        1.4281623107
 C          0.9609876941       -2.3574113766       -1.7707197610
 H          1.8543280562       -1.7729006721       -1.5564849474
 H          0.3451253833       -1.8396202322       -2.5042739254
 H          1.2523942705       -3.3299779177       -2.1621645919
 C         -1.0125605626       -3.3232831671       -0.8302956653
 H         -1.5998118607       -3.4887030162        0.0690437243
 H         -0.7203811133       -4.2890449961       -1.2381172519
 H         -1.6154237135       -2.7861885558       -1.5623667347
 H          0.5119094058       -0.0902091317        2.2205629591
 C          3.7364856994       -0.6425279765        1.2583553326
 O          3.0173185880       -0.8035948500        0.2790275413
 N          3.5201138124        0.3378625489        2.1672132758
 H          2.6203192447        0.8145886731        2.1272591347
 H          3.9876896127        0.3112595508        3.0561218645
 N          4.8109164762       -1.4427721235        1.4929641855
 H          5.4817950462       -1.2171861947        2.2053762408
 H          5.1100943779       -2.0591210938        0.7576207357
 C          1.3597082919        2.0196139115        0.2917704590
 O          1.0990600344        1.6234049855        1.4396272404
 N          2.6089092376        2.4072718178       -0.0484074091
 H          3.3601928991        2.1960729211        0.5864245480
 H          2.8487516415        2.5688454701       -1.0101089132
 N          0.4170838382        2.0914941796       -0.6574033521
 H          0.6212588377        2.5015144893       -1.5504468475
 H         -0.5653118648        1.9532833652       -0.4015255159
 C         -2.6561572143       -0.1638087793       -3.1200212223
 O         -1.8192221689       -0.9286993247       -2.6516406595
 N         -3.0889809666       -0.2901725001       -4.4018870319
 H         -2.8014147862       -1.1000993709       -4.9216440421
 H         -3.8676704294        0.2375686479       -4.7518473599
 N         -3.2032169421        0.8452713009       -2.4118895259
 H         -3.8003029557        1.5154828690       -2.8615559065
 H         -2.8381738055        1.0861989825       -1.4981341132
 C         -2.4780410058        2.2764544706        1.2695484332
 O         -2.2308473429        1.8427770626        0.1386163964
 N         -1.5263610550        2.4030596068        2.2063238805
 H         -0.5665638275        2.1315971168        1.9944077414
 H         -1.7344866233        2.7525940916        3.1233002805
 N         -3.7359466221        2.6259160282        1.6220366267
 H         -3.9514453409        3.0137329131        2.5217776536
 H         -4.4659072944        2.5733368389        0.9349711289
