  53

 O         -1.6360263247       -1.3631079140        2.2950172273
 C         -0.6269570152       -1.8188211527        1.4410849643
 H          0.1549272925       -2.2381593362        2.0787393712
 H         -0.9998558792       -2.6283124369        0.7960172064
 C         -0.0907196985       -0.7411901404        0.4925929963
 H         -0.9503942255       -0.3443389802       -0.0538223120
 H          0.5991720985       -1.2014830420       -0.2144526867
 N          0.6132164783        0.4051399902        1.1235261432
 C         -0.2907147536        1.1779227580        1.9906762265
 H         -1.1637965755        1.4916306362        1.4220464961
 H          0.2480000151        2.0475767221        2.3635756029
 H         -0.6271468456        0.5600604637        2.8201868264
 C          1.1034109804        1.2856151137        0.0495707661
 H          0.2655855964        1.6410494731       -0.5454674609
 H          1.7866831695        0.7327625143       -0.5920504668
 H          1.6182872879        2.1319787654        0.5018784262
 C          1.7743634072       -0.0394890904        1.9077395558
 H          2.4341175886       -0.6323415848        1.2774013908
 H          1.4524177259       -0.6322060629        2.7597294955
 H          2.3041481493        0.8413640200        2.2684720219
 H         -2.3138069770       -0.9315964957        1.7381215301
 C          2.0990071501       -2.5349720853       -1.9869728522
 O          2.1480975124       -1.3348181333       -1.7000665969
 N          3.2170806727       -3.2973339171       -1.9966303638
 H          4.1045772397       -2.8470791671       -1.8619797295
 H          3.2085540727       -4.2535141573       -2.3005627921
 N          0.9354492027       -3.1539503941       -2.2465320034
 H          0.9063018886       -4.1153922067       -2.5318988033
 H          0.0773849978       -2.6020921351       -2.2982777541
 C          2.8026411464        3.9626214853        2.9840631409
 O          2.2506443197        3.0342454748        2.4094242251
 N          2.3740422171        4.4270571558        4.1819229690
 H          1.6317493629        3.9404649563        4.6513541228
 H          2.8770047545        5.1284830310        4.6934047628
 N          3.8815408003        4.5940203324        2.4635831938
 H          4.2855580639        5.4055242533        2.8933349687
 H          4.1923612736        4.3389286610        1.5436961723
 C         -1.0261207959       -0.3703349769       -3.0803547922
 O         -1.2842510001       -1.4280407582       -2.4983927573
 N          0.1980875388        0.1838390533       -3.0370182275
 H          0.9554306099       -0.3424752778       -2.5953895910
 H          0.4375578845        0.9540855180       -3.6344275092
 N         -1.9782068144        0.3008647298       -3.7681761773
 H         -1.8012856290        1.1918134348       -4.1941147790
 H         -2.9234534890       -0.0377388424       -3.7419313025
 C         -4.0249764086       -0.7937686663       -0.2253602624
 O         -3.1013161514       -0.1682993233        0.2895542210
 N         -5.2363047545       -0.8864536316        0.3765665451
 H         -5.3988357358       -0.3439267400        1.2062793891
 H         -6.0282897885       -1.3019208218       -0.0786762216
 N         -3.8977178223       -1.4136352563       -1.4187730710
 H         -4.6009000337       -2.0624430605       -1.7253285494
 H         -2.9566974540       -1.5236713913       -1.7976546263
