53
 xtb: 6.6.1 (unknown-commit)
O           -1.62635777459736       -1.37692904581071        2.29905001263190
C           -0.61806376200050       -1.82847517873467        1.44396205418377
H            0.15787849770552       -2.24044544744798        2.07944930896132
H           -0.99687471177515       -2.63136492751412        0.79693428691469
C           -0.08477025699390       -0.74969802867618        0.49513296047094
H           -0.94896393013776       -0.34748216374500       -0.05312669050084
H            0.60124465330431       -1.20345093459004       -0.21370013053807
N            0.61612913174220        0.39830341525699        1.12594647670721
C           -0.29011567422886        1.16932672304215        1.99276091947650
H           -1.16408550618754        1.48802409923622        1.42275043709295
H            0.24751152494699        2.04570654343129        2.36372964460394
H           -0.62607162854938        0.55751606672510        2.82110760349555
C            1.10328588205045        1.28043610383729        0.05146734537102
H            0.26519414507678        1.63885091634035       -0.54483138822744
H            1.78697150788290        0.73177543559234       -0.59161450258935
H            1.61761034948450        2.13095720905679        0.50223310734951
C            1.77835411358299       -0.04210833977336        1.91016238453640
H            2.43589113437305       -0.63247281518086        1.27814381825270
H            1.45409022985127       -0.63329298602341        2.76039605916977
H            2.30441620316703        0.84107818503008        2.26931420401904
H           -2.31147371377722       -0.93487887430896        1.73938060893908
C            2.09616819148373       -2.53364736954018       -1.99791773771758
O            2.14819677102712       -1.33449040703989       -1.70827734253718
N            3.21250166272508       -3.29806818022678       -2.01448973563340
H            4.10368079393245       -2.84790139452335       -1.86704736587056
H            3.20655578895974       -4.25343308611885       -2.30626134778815
N            0.93041291414582       -3.14944245445385       -2.25696067566249
H            0.90424941891325       -4.11386411829743       -2.53572848660453
H            0.07628466037619       -2.60037464677006       -2.30006129615541
C            2.79479559636933        3.96663806030676        2.98104913522177
O            2.24213104988082        3.03424432990595        2.41299808562341
N            2.27014278667380        4.54259701454659        4.10160021568537
H            1.58417254420619        3.99128479693347        4.61918499991921
H            2.84874865878578        5.15832701209903        4.67386743217599
N            3.96793099221189        4.49309687635948        2.52887633925979
H            4.30943900544722        5.38056609823317        2.90622620831376
H            4.23551586500614        4.29063274647878        1.57379021715888
C           -1.02740176313861       -0.36080112966377       -3.07893501387288
O           -1.28693528921330       -1.41844635368691       -2.49982891228333
N            0.19780697388735        0.19163363398991       -3.03557839586148
H            0.95526162834068       -0.34112185445446       -2.59571837566129
H            0.43761401458044        0.95662754731295       -3.63339823760156
N           -1.97941294903000        0.31520912720810       -3.76292434606765
H           -1.80128237051238        1.19580487433554       -4.19226459110476
H           -2.92390473612139       -0.03355811360483       -3.74066366119862
C           -4.02047989749828       -0.79604113551180       -0.21672889049850
O           -3.09395028379880       -0.17436990082477        0.29985956682825
N           -5.22912410271281       -0.89256764369878        0.39000576863641
H           -5.39605427637478       -0.34690239947435        1.21095356466673
H           -6.02685665369622       -1.30272292986304       -0.07495061961818
N           -3.89737633751706       -1.40875543986802       -1.41369183903113
H           -4.60116503783480       -2.06055748069584       -1.72434694667385
H           -2.95697414453627       -1.52179798724694       -1.79733622562246
