  53

 O          1.5802202910       -2.1454954174        2.9344352458
 C          0.3696095319       -1.4458419302        2.9072749827
 H         -0.3763731329       -2.0988986825        3.3649039492
 H          0.4332599493       -0.5371050061        3.5211624111
 C         -0.0518879173       -0.9868871228        1.5046988439
 H          0.7873579276       -0.4407857158        1.0724239635
 H         -0.9181078745       -0.3274111314        1.5876671132
 N         -0.4227954207       -2.0563126287        0.5364404115
 C          0.7169843523       -2.9507129856        0.2837755090
 H          1.5361631968       -2.3803881146       -0.1515585580
 H          0.4238639429       -3.7394085198       -0.4065619656
 H          1.0600527813       -3.3905807549        1.2190577481
 C         -0.8115058555       -1.3928535150       -0.7216056093
 H         -0.0012558283       -0.7552715830       -1.0707357032
 H         -1.6897083261       -0.7740886443       -0.5326442926
 H         -1.0420287519       -2.1367978185       -1.4803963148
 C         -1.5761196878       -2.8230644470        1.0311239631
 H         -1.3073820174       -3.3877016090        1.9199743401
 H         -1.9115605149       -3.5189764920        0.2646638755
 H         -2.3818836880       -2.1261855084        1.2601852461
 H          2.2830205894       -1.5535000279        2.6012679087
 C          3.9632729375       -0.8673033994        0.6140206880
 O          3.2377498901       -0.4539226074        1.5233244946
 N          3.6078208106       -0.7292224567       -0.6801788827
 H          2.8249894902       -0.0984252167       -0.8819375657
 H          4.2749727926       -0.8977445256       -1.4119404092
 N          5.1038795296       -1.5376358938        0.8769398678
 H          5.7167034490       -1.8674511079        0.1543024549
 H          5.3727399688       -1.6732018058        1.8353874852
 C          1.1429672369        1.8293188751       -0.1723958689
 O          1.3447470630        0.8949260038       -0.9724757365
 N          1.9146820994        1.9781611378        0.9197310838
 H          2.5431459765        1.2243423532        1.1882995529
 H          1.7305899651        2.7035519491        1.5882102911
 N          0.1670097800        2.7215184613       -0.3811204320
 H         -0.0263112610        3.4378230788        0.2947123108
 H         -0.5322900555        2.5324461186       -1.1035422181
 C         -1.3137203698        1.5278425749       -3.3150203099
 O         -1.7542366976        1.9655206872       -2.2499732135
 N         -0.0822045599        0.9992792254       -3.4085506436
 H          0.5151230861        0.9993263019       -2.5804858280
 H          0.3025554533        0.7169991727       -4.2908023382
 N         -2.0743858321        1.5162499454       -4.4352889463
 H         -1.6983206091        1.2653816892       -5.3312133584
 H         -2.9680514574        1.9740513068       -4.4086828032
 C         -3.7763447461        0.9095923894        0.8071043661
 O         -2.9349446487        0.0244365875        0.9367972129
 N         -4.7279904893        1.1215994107        1.7542331779
 H         -4.8126643031        0.4540468801        2.4999570191
 H         -5.5006865406        1.7419854296        1.5942276087
 N         -3.8149622266        1.7281333838       -0.2609122092
 H         -4.4589784269        2.4973549763       -0.2940026057
 H         -3.0687061640        1.7156792807       -0.9469444138
