  53

 O         -1.3413886740       -0.6486800403       -3.0904423375
 C         -0.2598666685        0.1399625139       -3.4911624651
 H          0.3623923171       -0.4937195710       -4.1268916870
 H         -0.5979932716        0.9912935621       -4.0976199452
 C          0.5474616565        0.7402779906       -2.3294790660
 H         -0.1405677225        1.3077462679       -1.6973753496
 H          1.2748621722        1.4352804457       -2.7533883410
 N          1.2775749551       -0.2213575465       -1.4614472347
 C          2.2432243068       -1.0321706371       -2.2196875252
 H          2.9246395139       -0.3905708804       -2.7750067594
 H          1.7245282965       -1.6925031230       -2.9095736721
 H          2.8074421173       -1.6380116071       -1.5107191558
 C          0.3476676941       -1.1281175282       -0.7653475066
 H         -0.1963499789       -1.7310200338       -1.4875347719
 H         -0.3615028927       -0.5414655386       -0.1848862533
 H          0.9268190140       -1.7664738368       -0.0998512874
 C          2.0174948075        0.5440642654       -0.4427056023
 H          1.3270237664        1.1306486143        0.1571413787
 H          2.7398753478        1.2062353227       -0.9150956562
 H          2.5365206580       -0.1639736108        0.2046227230
 H         -1.9904410022       -0.0881898324       -2.6259893493
 C          3.4062691417       -2.4188575411        1.7777592308
 O          2.9618405634       -2.1080412705        0.6767904169
 N          4.6050143610       -3.0443787749        1.9062050334
 H          5.0591231908       -3.3718805082        1.0721505867
 H          4.9107334325       -3.4246311595        2.7834060197
 N          2.7470294080       -2.1570509033        2.9249045039
 H          3.2001252961       -2.2851344981        3.8116760788
 H          1.9037343302       -1.5866625539        2.8985132099
 C         -0.9279163582        2.0329306722        1.0903005341
 O         -1.4777487678        1.0523697304        0.5516558170
 N         -0.1754555668        1.8732324137        2.1899949017
 H         -0.0434754956        0.9334287429        2.5721634162
 H          0.2083874272        2.6590572441        2.6817125577
 N         -1.0429562479        3.2622067478        0.5648126709
 H         -0.5625023274        4.0466684389        0.9664605912
 H         -1.4209218077        3.3563345749       -0.3783669378
 C         -0.7464502264       -1.5431365760        2.8784453270
 O          0.2401105677       -0.8030203560        2.9263969315
 N         -1.8562658211       -1.2021397116        2.2046110771
 H         -1.8391408449       -0.3590678495        1.6312326532
 H         -2.6387726442       -1.8254700011        2.1328925789
 N         -0.7488339029       -2.7496385584        3.4933148313
 H         -1.5774580776       -3.3129075190        3.5493480581
 H          0.0254225489       -2.9877065828        4.0869967860
 C         -2.8442896491        2.4177042624       -2.3711947789
 O         -1.8509931856        3.0840740725       -2.1103123945
 N         -3.0932028176        1.2325260461       -1.7303857598
 H         -2.5997984129        1.1249836384       -0.8360292473
 H         -4.0282552153        0.8596824966       -1.7602736366
 N         -3.7053422343        2.7617081077       -3.3515166630
 H         -4.5068633740        2.2074441995       -3.5914185745
 H         -3.5215297053        3.5968098174       -3.8790032497
