  53

 O          2.2299548916       -2.5396195584        1.5316190003
 C          2.2978356285       -1.1457450817        1.4446628174
 H          1.8119837410       -0.7466176790        2.3385612216
 H          3.3472947647       -0.8130466803        1.4629094120
 C          1.6934579919       -0.5730646041        0.1582835196
 H          2.1796072257       -1.0720827669       -0.6838351216
 H          1.9058045535        0.4986617038        0.1249191504
 N          0.2254648895       -0.7384472726       -0.0118658927
 C         -0.5121207176       -0.0131823486        1.0325167081
 H         -0.1975643524        1.0263442017        1.0419320965
 H         -0.3343095973       -0.4619329814        2.0056225067
 H         -1.5749259100       -0.0642950209        0.8000646203
 C         -0.1837759548       -2.1519378227        0.0034548082
 H         -1.2478467184       -2.2043031713       -0.2208593108
 H          0.0074785166       -2.5873315087        0.9814131009
 H          0.3842167092       -2.7090685570       -0.7396700895
 C         -0.1446852366       -0.1677882951       -1.3177413612
 H          0.3418188910       -0.7239826267       -2.1160332650
 H          0.1604337714        0.8749038799       -1.3620034087
 H         -1.2266689423       -0.2335695698       -1.4314850453
 H          2.4493927315       -2.8954152084        0.6383697447
 C          3.4057739783       -4.4189591059       -1.0312390666
 O          2.7129455667       -3.4038342834       -0.9940736243
 N          3.7680414830       -4.9891021787       -2.2004763564
 H          3.5025140012       -4.5404999070       -3.0586138789
 H          4.3737710399       -5.7875698886       -2.2445121960
 N          3.8466505448       -5.0256597859        0.0917194703
 H          4.3722521054       -5.8798332630        0.0655078345
 H          3.5616668385       -4.6659586812        0.9870224209
 C         -1.7557065427        3.1584758757       -1.0492890122
 O         -2.0492477429        2.8204200474        0.1004855007
 N         -0.4774721665        3.2425936953       -1.4606026944
 H          0.2653142852        3.1000280553       -0.7715998026
 H         -0.2422229614        3.6538362375       -2.3453528795
 N         -2.7113489291        3.4407457078       -1.9639951093
 H         -2.4895034248        3.6372968307       -2.9225080816
 H         -3.6734356300        3.2920235715       -1.7169383435
 C          1.1675006781        3.2685000655        1.5798297448
 O          1.3789720494        2.6397383509        0.5384443346
 N         -0.0788040252        3.5639117225        1.9853937275
 H         -0.8685957829        3.3072022726        1.3906260287
 H         -0.2504181804        4.1071376185        2.8110427094
 N          2.1843378242        3.6425687488        2.3909600149
 H          2.0380246634        4.2321494491        3.1897093884
 H          3.1258003741        3.4987546938        2.0720337754
 C         -4.2049383286       -0.1494374107       -0.2261944976
 O         -3.1138844649       -0.6307014331       -0.5078077620
 N         -5.3293027792       -0.9102775209       -0.1871309680
 H         -5.2704725986       -1.8552579287       -0.5227924258
 H         -6.2415404088       -0.5021183720       -0.0938117972
 N         -4.3674587024        1.1637038162        0.0576667178
 H         -5.2255935550        1.4862307173        0.4683861403
 H         -3.5361770758        1.7361631574        0.1982741537
