  53

 O         -0.8856472751        0.3347943915       -2.9598592827
 C          0.4576957412        0.0719949081       -2.6613458788
 H          0.8693341573       -0.4644469865       -3.5187737507
 H          1.0143701619        1.0130575223       -2.5631891969
 C          0.6404277886       -0.6964584373       -1.3461661370
 H         -0.1159490653       -0.3399766401       -0.6422903067
 H          1.6309720884       -0.4951072736       -0.9361937501
 N          0.4837815509       -2.1736885572       -1.4102439398
 C          0.6547868119       -2.6781800753       -0.0354287569
 H          1.6177562870       -2.3556832278        0.3553313916
 H          0.5961924216       -3.7641296336       -0.0233976409
 H         -0.1383271958       -2.2663565289        0.5895255989
 C          1.5123209697       -2.7781216453       -2.2686510060
 H          1.3642787010       -2.4954876506       -3.3080564203
 H          1.4616049101       -3.8634031010       -2.1985046974
 H          2.4973356464       -2.4470680335       -1.9436973191
 C         -0.8642875237       -2.5182631942       -1.8891457516
 H         -1.0529814406       -2.0524407732       -2.8532351425
 H         -1.5915136938       -2.1428097939       -1.1679919718
 H         -0.9649901235       -3.5978723356       -1.9777775352
 H         -1.2025858115        0.9660958235       -2.2800438842
 C          0.0682706012        1.1841006096        1.6550479184
 O          0.2768329317        0.3793603111        2.5712192708
 N         -1.1253134229        1.7954135323        1.4849584887
 H         -1.9020722723        1.4473278127        2.0207731171
 H         -1.3250568253        2.1927658359        0.5758452394
 N          1.0424122818        1.5659185650        0.8040221966
 H          0.7872950573        2.1181930778        0.0035010295
 H          1.8893856933        1.0093600311        0.7592463666
 C         -1.4873547039        3.4684397470       -2.0218569061
 O         -1.1629456332        2.5114537600       -1.3154181526
 N         -1.6439915254        3.3422428334       -3.3541830279
 H         -1.5427358342        2.4291845761       -3.7683024094
 H         -1.9551510227        4.1020745560       -3.9308159122
 N         -1.6870199073        4.6967717340       -1.5006075727
 H         -1.9351268883        5.4865244350       -2.0674717222
 H         -1.5556847616        4.8381564274       -0.5147710881
 C         -2.5912214904       -1.4656627193        1.8143977423
 O         -1.9773045244       -1.3557965496        0.7564419526
 N         -2.1501840403       -0.9200087161        2.9641871148
 H         -1.2111975158       -0.5121554622        2.9757072946
 H         -2.5830445068       -1.1456683427        3.8414883829
 N         -3.7612375736       -2.1570937943        1.8857454040
 H         -4.3366123855       -2.1252081196        2.7078991303
 H         -4.1964058740       -2.4419560624        1.0262729915
 C          3.5858290516       -0.7092675941        1.6616098246
 O          3.0910741965       -0.4919889077        0.5518155470
 N          2.8786094072       -0.5939149066        2.7933932138
 H          1.9107660812       -0.2563634488        2.7572074583
 H          3.3022509279       -0.7410136761        3.6908866739
 N          4.8679697043       -1.1463832790        1.7807856592
 H          5.3248089042       -1.1771503658        2.6744319543
 H          5.4514953905       -1.1170047676        0.9632856904
