 xtb: 6.6.1 (unknown-commit)
          01102415363D

 53 48  0     0  0            999 V2000
   -0.8857    0.3348   -2.9599 O   0  0  0  0  0  0  0  0  0  0  0  0
    0.4577    0.0720   -2.6613 C   0  0  0  0  0  0  0  0  0  0  0  0
    0.8693   -0.4645   -3.5188 H   0  0  0  0  0  0  0  0  0  0  0  0
    1.0144    1.0130   -2.5632 H   0  0  0  0  0  0  0  0  0  0  0  0
    0.6404   -0.6965   -1.3462 C   0  0  0  0  0  0  0  0  0  0  0  0
   -0.1160   -0.3400   -0.6423 H   0  0  0  0  0  0  0  0  0  0  0  0
    1.6310   -0.4951   -0.9362 H   0  0  0  0  0  0  0  0  0  0  0  0
    0.4838   -2.1737   -1.4102 N   0  0  0  0  0  0  0  0  0  0  0  0
    0.6548   -2.6782   -0.0354 C   0  0  0  0  0  0  0  0  0  0  0  0
    1.6177   -2.3557    0.3553 H   0  0  0  0  0  0  0  0  0  0  0  0
    0.5962   -3.7641   -0.0234 H   0  0  0  0  0  0  0  0  0  0  0  0
   -0.1383   -2.2664    0.5895 H   0  0  0  0  0  0  0  0  0  0  0  0
    1.5123   -2.7781   -2.2687 C   0  0  0  0  0  0  0  0  0  0  0  0
    1.3643   -2.4955   -3.3081 H   0  0  0  0  0  0  0  0  0  0  0  0
    1.4616   -3.8634   -2.1985 H   0  0  0  0  0  0  0  0  0  0  0  0
    2.4973   -2.4471   -1.9437 H   0  0  0  0  0  0  0  0  0  0  0  0
   -0.8643   -2.5183   -1.8891 C   0  0  0  0  0  0  0  0  0  0  0  0
   -1.0530   -2.0524   -2.8532 H   0  0  0  0  0  0  0  0  0  0  0  0
   -1.5915   -2.1428   -1.1680 H   0  0  0  0  0  0  0  0  0  0  0  0
   -0.9650   -3.5979   -1.9778 H   0  0  0  0  0  0  0  0  0  0  0  0
   -1.2026    0.9661   -2.2800 H   0  0  0  0  0  0  0  0  0  0  0  0
    0.0683    1.1841    1.6550 C   0  0  0  0  0  0  0  0  0  0  0  0
    0.2768    0.3794    2.5712 O   0  0  0  0  0  0  0  0  0  0  0  0
   -1.1253    1.7954    1.4850 N   0  0  0  0  0  0  0  0  0  0  0  0
   -1.9021    1.4473    2.0208 H   0  0  0  0  0  0  0  0  0  0  0  0
   -1.3250    2.1928    0.5758 H   0  0  0  0  0  0  0  0  0  0  0  0
    1.0424    1.5659    0.8040 N   0  0  0  0  0  0  0  0  0  0  0  0
    0.7873    2.1182    0.0035 H   0  0  0  0  0  0  0  0  0  0  0  0
    1.8894    1.0094    0.7592 H   0  0  0  0  0  0  0  0  0  0  0  0
   -1.4873    3.4684   -2.0219 C   0  0  0  0  0  0  0  0  0  0  0  0
   -1.1629    2.5115   -1.3154 O   0  0  0  0  0  0  0  0  0  0  0  0
   -1.6440    3.3422   -3.3542 N   0  0  0  0  0  0  0  0  0  0  0  0
   -1.5427    2.4292   -3.7683 H   0  0  0  0  0  0  0  0  0  0  0  0
   -1.9551    4.1021   -3.9308 H   0  0  0  0  0  0  0  0  0  0  0  0
   -1.6870    4.6968   -1.5006 N   0  0  0  0  0  0  0  0  0  0  0  0
   -1.9351    5.4865   -2.0675 H   0  0  0  0  0  0  0  0  0  0  0  0
   -1.5557    4.8382   -0.5148 H   0  0  0  0  0  0  0  0  0  0  0  0
   -2.5912   -1.4656    1.8144 C   0  0  0  0  0  0  0  0  0  0  0  0
   -1.9773   -1.3558    0.7565 O   0  0  0  0  0  0  0  0  0  0  0  0
   -2.1502   -0.9200    2.9642 N   0  0  0  0  0  0  0  0  0  0  0  0
   -1.2112   -0.5121    2.9757 H   0  0  0  0  0  0  0  0  0  0  0  0
   -2.5830   -1.1456    3.8415 H   0  0  0  0  0  0  0  0  0  0  0  0
   -3.7612   -2.1571    1.8858 N   0  0  0  0  0  0  0  0  0  0  0  0
   -4.3366   -2.1252    2.7079 H   0  0  0  0  0  0  0  0  0  0  0  0
   -4.1964   -2.4419    1.0263 H   0  0  0  0  0  0  0  0  0  0  0  0
    3.5858   -0.7093    1.6616 C   0  0  0  0  0  0  0  0  0  0  0  0
    3.0911   -0.4920    0.5518 O   0  0  0  0  0  0  0  0  0  0  0  0
    2.8786   -0.5939    2.7934 N   0  0  0  0  0  0  0  0  0  0  0  0
    1.9108   -0.2564    2.7572 H   0  0  0  0  0  0  0  0  0  0  0  0
    3.3023   -0.7410    3.6909 H   0  0  0  0  0  0  0  0  0  0  0  0
    4.8680   -1.1464    1.7808 N   0  0  0  0  0  0  0  0  0  0  0  0
    5.3248   -1.1772    2.6744 H   0  0  0  0  0  0  0  0  0  0  0  0
    5.4515   -1.1170    0.9633 H   0  0  0  0  0  0  0  0  0  0  0  0
  1  2  1  0  0  0  0
  2  3  1  0  0  0  0
  2  4  1  0  0  0  0
  2  5  1  0  0  0  0
  5  6  1  0  0  0  0
  5  7  1  0  0  0  0
  5  8  1  0  0  0  0
  8  9  1  0  0  0  0
  9 10  1  0  0  0  0
  9 11  1  0  0  0  0
  9 12  1  0  0  0  0
  8 13  1  0  0  0  0
 13 14  1  0  0  0  0
 13 15  1  0  0  0  0
 13 16  1  0  0  0  0
  8 17  1  0  0  0  0
 17 18  1  0  0  0  0
 17 19  1  0  0  0  0
 17 20  1  0  0  0  0
  1 21  1  0  0  0  0
 22 23  4  0  0  0  0
 22 24  4  0  0  0  0
 24 25  1  0  0  0  0
 24 26  1  0  0  0  0
 22 27  4  0  0  0  0
 27 28  1  0  0  0  0
 27 29  1  0  0  0  0
 30 31  4  0  0  0  0
 30 32  4  0  0  0  0
 32 33  1  0  0  0  0
 32 34  1  0  0  0  0
 30 35  4  0  0  0  0
 35 36  1  0  0  0  0
 35 37  1  0  0  0  0
 38 39  2  0  0  0  0
 38 40  4  0  0  0  0
 40 41  1  0  0  0  0
 40 42  1  0  0  0  0
 38 43  1  0  0  0  0
 43 44  1  0  0  0  0
 43 45  1  0  0  0  0
 46 47  4  0  0  0  0
 46 48  4  0  0  0  0
 48 49  1  0  0  0  0
 48 50  1  0  0  0  0
 46 51  1  0  0  0  0
 51 52  1  0  0  0  0
 51 53  1  0  0  0  0
M  CHG  1   1   1
M  END
