  53

 O          2.2920619909        0.6291232089       -1.1348824280
 C          1.8068388024        1.9359012588       -1.0691604134
 H          2.6488375084        2.5700008089       -0.7780417485
 H          1.4676368352        2.2752304416       -2.0570504365
 C          0.6158804905        2.1180857572       -0.1129125629
 H         -0.1496359617        1.3694418798       -0.3452330950
 H          0.2031666468        3.1163735958       -0.2707063298
 N          0.9043224080        1.9665309036        1.3382852911
 C          1.3118515285        0.5843014206        1.6415832222
 H          0.5076186844       -0.0877451258        1.3461510264
 H          1.4924538968        0.5029618775        2.7114103848
 H          2.2137656117        0.3374086463        1.0874781875
 C         -0.3376768194        2.2415889482        2.0830948435
 H         -1.1081165642        1.5460266055        1.7547018039
 H         -0.6670496490        3.2630706849        1.9055812348
 H         -0.1394087721        2.1039454891        3.1449266878
 C          1.9488643363        2.8909218493        1.8028265831
 H          1.6895920538        3.9151753882        1.5418899160
 H          2.9073147307        2.6360890127        1.3580831861
 H          2.0272088802        2.7982309570        2.8860913189
 H          1.6346649404        0.0725717561       -1.6184920862
 C          0.4675347671       -2.0921656858       -1.7093803998
 O          0.4796480575       -1.0040919748       -2.3007599665
 N          1.3648079334       -2.3587731096       -0.7285662183
 H          2.1416750341       -1.7291641919       -0.6163010037
 H          1.4548610021       -3.2856711848       -0.3533543537
 N         -0.4253354545       -3.0477488929       -1.9958409065
 H         -0.4763147349       -3.8856153725       -1.4458670987
 H         -1.2071080420       -2.8333055549       -2.6197666623
 C          1.5565581840        1.6920394032        5.8637379147
 O          1.4187975948        1.7500248962        4.6492327961
 N          0.5058150727        1.5252891608        6.7016232676
 H         -0.4036455802        1.3610968486        6.3092387851
 H          0.6260340339        1.3943978017        7.6890404512
 N          2.7689186154        1.7924338235        6.4581385239
 H          2.8740684279        1.8292155124        7.4552120901
 H          3.5710970496        1.9944551248        5.8892069759
 C         -2.0052612983       -1.8290545440       -4.7916506172
 O         -2.4755324181       -2.2865951176       -3.7448766582
 N         -0.9078963826       -1.0496916192       -4.7920111081
 H         -0.3749413195       -0.9593588514       -3.9264625954
 H         -0.4667675591       -0.7775195064       -5.6515919911
 N         -2.5909043512       -2.0721032476       -5.9838565181
 H         -2.2628531482       -1.6622825935       -6.8388249622
 H         -3.4484177112       -2.5948698547       -5.9972930307
 C         -2.1466902472       -0.7199805290       -0.4626098690
 O         -1.4922727725       -0.0825418566        0.3571691152
 N         -2.7029940739       -1.9228796728       -0.1576420016
 H         -2.7749906950       -2.1742864520        0.8128221814
 H         -3.3562350342       -2.3392535258       -0.7982842022
 N         -2.3751968227       -0.2854383691       -1.7222600036
 H         -2.6500165291       -0.9644193809       -2.4253040566
 H         -1.7949573413        0.4666242228       -2.0549553315
