 xtb: 6.6.1 (unknown-commit)
          01102418293D

 53 48  0     0  0            999 V2000
   -0.6949    3.9223   -0.7481 O   0  0  0  0  0  0  0  0  0  0  0  0
   -0.8581    3.3913   -2.0266 C   0  0  0  0  0  0  0  0  0  0  0  0
   -1.8072    3.7787   -2.4061 H   0  0  0  0  0  0  0  0  0  0  0  0
   -0.0629    3.7464   -2.7000 H   0  0  0  0  0  0  0  0  0  0  0  0
   -0.8032    1.8568   -2.0803 C   0  0  0  0  0  0  0  0  0  0  0  0
    0.1397    1.5450   -1.6240 H   0  0  0  0  0  0  0  0  0  0  0  0
   -0.8100    1.5510   -3.1287 H   0  0  0  0  0  0  0  0  0  0  0  0
   -1.8894    1.1206   -1.3800 N   0  0  0  0  0  0  0  0  0  0  0  0
   -1.8658    1.3859    0.0691 C   0  0  0  0  0  0  0  0  0  0  0  0
   -0.9031    1.0976    0.4821 H   0  0  0  0  0  0  0  0  0  0  0  0
   -2.6427    0.7859    0.5413 H   0  0  0  0  0  0  0  0  0  0  0  0
   -2.0339    2.4427    0.2589 H   0  0  0  0  0  0  0  0  0  0  0  0
   -1.6734   -0.3223   -1.5952 C   0  0  0  0  0  0  0  0  0  0  0  0
   -0.6670   -0.5966   -1.2868 H   0  0  0  0  0  0  0  0  0  0  0  0
   -1.8078   -0.5719   -2.6454 H   0  0  0  0  0  0  0  0  0  0  0  0
   -2.3939   -0.8748   -0.9889 H   0  0  0  0  0  0  0  0  0  0  0  0
   -3.2215    1.4718   -1.8942 C   0  0  0  0  0  0  0  0  0  0  0  0
   -3.2608    1.3381   -2.9739 H   0  0  0  0  0  0  0  0  0  0  0  0
   -3.4622    2.5037   -1.6501 H   0  0  0  0  0  0  0  0  0  0  0  0
   -3.9556    0.8200   -1.4225 H   0  0  0  0  0  0  0  0  0  0  0  0
    0.0998    3.5159   -0.3417 H   0  0  0  0  0  0  0  0  0  0  0  0
    4.1336   -2.9652   -1.7612 C   0  0  0  0  0  0  0  0  0  0  0  0
    3.1280   -2.4331   -1.3086 O   0  0  0  0  0  0  0  0  0  0  0  0
    4.1921   -4.2935   -2.0201 N   0  0  0  0  0  0  0  0  0  0  0  0
    3.3477   -4.8329   -1.9499 H   0  0  0  0  0  0  0  0  0  0  0  0
    4.9739   -4.7062   -2.4953 H   0  0  0  0  0  0  0  0  0  0  0  0
    5.2603   -2.2644   -2.0304 N   0  0  0  0  0  0  0  0  0  0  0  0
    6.1139   -2.7149   -2.3053 H   0  0  0  0  0  0  0  0  0  0  0  0
    5.3025   -1.2989   -1.7574 H   0  0  0  0  0  0  0  0  0  0  0  0
    1.2767    2.6750    1.7378 C   0  0  0  0  0  0  0  0  0  0  0  0
    1.2106    2.4242    0.5261 O   0  0  0  0  0  0  0  0  0  0  0  0
    0.9919    1.7524    2.6658 N   0  0  0  0  0  0  0  0  0  0  0  0
    0.6417    0.8357    2.3753 H   0  0  0  0  0  0  0  0  0  0  0  0
    1.0253    1.9677    3.6449 H   0  0  0  0  0  0  0  0  0  0  0  0
    1.6450    3.8998    2.1714 N   0  0  0  0  0  0  0  0  0  0  0  0
    1.6847    4.1351    3.1457 H   0  0  0  0  0  0  0  0  0  0  0  0
    1.8547    4.6133    1.4965 H   0  0  0  0  0  0  0  0  0  0  0  0
    0.8181   -1.1494    0.7677 C   0  0  0  0  0  0  0  0  0  0  0  0
    0.0780   -0.6888    1.6492 O   0  0  0  0  0  0  0  0  0  0  0  0
    0.9398   -2.4716    0.5474 N   0  0  0  0  0  0  0  0  0  0  0  0
    0.5306   -3.1172    1.1983 H   0  0  0  0  0  0  0  0  0  0  0  0
    1.6464   -2.7879   -0.1030 H   0  0  0  0  0  0  0  0  0  0  0  0
    1.4630   -0.3538   -0.1135 N   0  0  0  0  0  0  0  0  0  0  0  0
    2.1835   -0.7819   -0.6780 H   0  0  0  0  0  0  0  0  0  0  0  0
    1.5278    0.6405    0.0989 H   0  0  0  0  0  0  0  0  0  0  0  0
   -3.6113   -1.6948    1.5908 C   0  0  0  0  0  0  0  0  0  0  0  0
   -3.6769   -1.0152    0.5716 O   0  0  0  0  0  0  0  0  0  0  0  0
   -4.7209   -2.2538    2.1377 N   0  0  0  0  0  0  0  0  0  0  0  0
   -5.5823   -2.1912    1.6249 H   0  0  0  0  0  0  0  0  0  0  0  0
   -4.6695   -2.9094    2.8957 H   0  0  0  0  0  0  0  0  0  0  0  0
   -2.4477   -1.9429    2.2311 N   0  0  0  0  0  0  0  0  0  0  0  0
   -2.4586   -2.3779    3.1363 H   0  0  0  0  0  0  0  0  0  0  0  0
   -1.6045   -1.4325    1.9788 H   0  0  0  0  0  0  0  0  0  0  0  0
  1  2  1  0  0  0  0
  2  3  1  0  0  0  0
  2  4  1  0  0  0  0
  2  5  1  0  0  0  0
  5  6  1  0  0  0  0
  5  7  1  0  0  0  0
  5  8  1  0  0  0  0
  8  9  1  0  0  0  0
  9 10  1  0  0  0  0
  9 11  1  0  0  0  0
  9 12  1  0  0  0  0
  8 13  1  0  0  0  0
 13 14  1  0  0  0  0
 13 15  1  0  0  0  0
 13 16  1  0  0  0  0
  8 17  1  0  0  0  0
 17 18  1  0  0  0  0
 17 19  1  0  0  0  0
 17 20  1  0  0  0  0
  1 21  1  0  0  0  0
 22 23  2  0  0  0  0
 22 24  4  0  0  0  0
 24 25  1  0  0  0  0
 24 26  1  0  0  0  0
 22 27  4  0  0  0  0
 27 28  1  0  0  0  0
 27 29  1  0  0  0  0
 30 31  4  0  0  0  0
 30 32  4  0  0  0  0
 32 33  1  0  0  0  0
 32 34  1  0  0  0  0
 30 35  4  0  0  0  0
 35 36  1  0  0  0  0
 35 37  1  0  0  0  0
 38 39  4  0  0  0  0
 38 40  4  0  0  0  0
 40 41  1  0  0  0  0
 40 42  1  0  0  0  0
 38 43  4  0  0  0  0
 43 44  1  0  0  0  0
 43 45  1  0  0  0  0
 46 47  2  0  0  0  0
 46 48  1  0  0  0  0
 48 49  1  0  0  0  0
 48 50  1  0  0  0  0
 46 51  4  0  0  0  0
 51 52  1  0  0  0  0
 51 53  1  0  0  0  0
M  CHG  1   1   1
M  END
