 xtb: 6.6.1 (unknown-commit)
          01102418253D

 53 48  0     0  0            999 V2000
    0.4864   -0.4810    2.7303 O   0  0  0  0  0  0  0  0  0  0  0  0
   -0.5676   -0.3648    1.8184 C   0  0  0  0  0  0  0  0  0  0  0  0
   -1.4397   -0.8306    2.2831 H   0  0  0  0  0  0  0  0  0  0  0  0
   -0.8042    0.6903    1.6474 H   0  0  0  0  0  0  0  0  0  0  0  0
   -0.2582   -0.9672    0.4416 C   0  0  0  0  0  0  0  0  0  0  0  0
    0.7550   -0.6642    0.1624 H   0  0  0  0  0  0  0  0  0  0  0  0
   -0.9702   -0.5718   -0.2823 H   0  0  0  0  0  0  0  0  0  0  0  0
   -0.3100   -2.4524    0.3541 N   0  0  0  0  0  0  0  0  0  0  0  0
    0.6571   -3.0469    1.2896 C   0  0  0  0  0  0  0  0  0  0  0  0
    1.6559   -2.7241    0.9968 H   0  0  0  0  0  0  0  0  0  0  0  0
    0.5974   -4.1325    1.2489 H   0  0  0  0  0  0  0  0  0  0  0  0
    0.4629   -2.7038    2.3028 H   0  0  0  0  0  0  0  0  0  0  0  0
    0.0609   -2.8307   -1.0206 C   0  0  0  0  0  0  0  0  0  0  0  0
    1.0595   -2.4537   -1.2353 H   0  0  0  0  0  0  0  0  0  0  0  0
   -0.6566   -2.4046   -1.7179 H   0  0  0  0  0  0  0  0  0  0  0  0
    0.0577   -3.9143   -1.1199 H   0  0  0  0  0  0  0  0  0  0  0  0
   -1.6680   -2.9492    0.6208 C   0  0  0  0  0  0  0  0  0  0  0  0
   -1.9543   -2.7511    1.6500 H   0  0  0  0  0  0  0  0  0  0  0  0
   -1.7043   -4.0245    0.4549 H   0  0  0  0  0  0  0  0  0  0  0  0
   -2.3666   -2.4590   -0.0563 H   0  0  0  0  0  0  0  0  0  0  0  0
    1.1849    0.1222    2.4276 H   0  0  0  0  0  0  0  0  0  0  0  0
    3.8789   -1.0624   -0.2838 C   0  0  0  0  0  0  0  0  0  0  0  0
    2.7813   -1.5920   -0.4156 O   0  0  0  0  0  0  0  0  0  0  0  0
    4.0580    0.0554    0.4479 N   0  0  0  0  0  0  0  0  0  0  0  0
    3.2384    0.5550    0.7838 H   0  0  0  0  0  0  0  0  0  0  0  0
    4.9412    0.5322    0.4454 H   0  0  0  0  0  0  0  0  0  0  0  0
    4.9918   -1.5779   -0.8717 N   0  0  0  0  0  0  0  0  0  0  0  0
    5.9101   -1.2424   -0.6446 H   0  0  0  0  0  0  0  0  0  0  0  0
    4.9199   -2.4791   -1.3093 H   0  0  0  0  0  0  0  0  0  0  0  0
    1.6717    2.7495    1.1183 C   0  0  0  0  0  0  0  0  0  0  0  0
    1.7806    1.5372    1.2864 O   0  0  0  0  0  0  0  0  0  0  0  0
    2.7177    3.5875    1.3551 N   0  0  0  0  0  0  0  0  0  0  0  0
    3.5126    3.2176    1.8467 H   0  0  0  0  0  0  0  0  0  0  0  0
    2.5908    4.5836    1.3759 H   0  0  0  0  0  0  0  0  0  0  0  0
    0.5343    3.3306    0.6928 N   0  0  0  0  0  0  0  0  0  0  0  0
    0.5330    4.3022    0.4374 H   0  0  0  0  0  0  0  0  0  0  0  0
   -0.2312    2.7605    0.3410 H   0  0  0  0  0  0  0  0  0  0  0  0
   -2.3601   -0.4000   -2.8119 C   0  0  0  0  0  0  0  0  0  0  0  0
   -2.6444   -1.0077   -1.7741 O   0  0  0  0  0  0  0  0  0  0  0  0
   -2.4605   -1.0037   -4.0220 N   0  0  0  0  0  0  0  0  0  0  0  0
   -2.9296   -1.8912   -4.0697 H   0  0  0  0  0  0  0  0  0  0  0  0
   -2.3598   -0.4843   -4.8753 H   0  0  0  0  0  0  0  0  0  0  0  0
   -1.8844    0.8527   -2.7916 N   0  0  0  0  0  0  0  0  0  0  0  0
   -1.6557    1.3434   -3.6360 H   0  0  0  0  0  0  0  0  0  0  0  0
   -1.7779    1.3316   -1.8955 H   0  0  0  0  0  0  0  0  0  0  0  0
   -2.8704    1.8182    0.4057 C   0  0  0  0  0  0  0  0  0  0  0  0
   -1.8387    2.0265   -0.2413 O   0  0  0  0  0  0  0  0  0  0  0  0
   -3.2974    2.6966    1.3411 N   0  0  0  0  0  0  0  0  0  0  0  0
   -2.7837    3.5477    1.4812 H   0  0  0  0  0  0  0  0  0  0  0  0
   -4.1431    2.5566    1.8622 H   0  0  0  0  0  0  0  0  0  0  0  0
   -3.5916    0.6969    0.2486 N   0  0  0  0  0  0  0  0  0  0  0  0
   -4.4777    0.5778    0.7040 H   0  0  0  0  0  0  0  0  0  0  0  0
   -3.3199    0.0357   -0.4816 H   0  0  0  0  0  0  0  0  0  0  0  0
  1  2  1  0  0  0  0
  2  3  1  0  0  0  0
  2  4  1  0  0  0  0
  2  5  1  0  0  0  0
  5  6  1  0  0  0  0
  5  7  1  0  0  0  0
  5  8  1  0  0  0  0
  8  9  1  0  0  0  0
  9 10  1  0  0  0  0
  9 11  1  0  0  0  0
  9 12  1  0  0  0  0
  8 13  1  0  0  0  0
 13 14  1  0  0  0  0
 13 15  1  0  0  0  0
 13 16  1  0  0  0  0
  8 17  1  0  0  0  0
 17 18  1  0  0  0  0
 17 19  1  0  0  0  0
 17 20  1  0  0  0  0
  1 21  1  0  0  0  0
 22 23  2  0  0  0  0
 22 24  4  0  0  0  0
 24 25  1  0  0  0  0
 24 26  1  0  0  0  0
 22 27  1  0  0  0  0
 27 28  1  0  0  0  0
 27 29  1  0  0  0  0
 30 31  2  0  0  0  0
 30 32  1  0  0  0  0
 32 33  1  0  0  0  0
 32 34  1  0  0  0  0
 30 35  4  0  0  0  0
 35 36  1  0  0  0  0
 35 37  1  0  0  0  0
 38 39  4  0  0  0  0
 38 40  4  0  0  0  0
 40 41  1  0  0  0  0
 40 42  1  0  0  0  0
 38 43  4  0  0  0  0
 43 44  1  0  0  0  0
 43 45  1  0  0  0  0
 46 47  4  0  0  0  0
 46 48  4  0  0  0  0
 48 49  1  0  0  0  0
 48 50  1  0  0  0  0
 46 51  4  0  0  0  0
 51 52  1  0  0  0  0
 51 53  1  0  0  0  0
M  CHG  1   1   1
M  END
