 xtb: 6.6.1 (unknown-commit)
          01092415333D

 21 20  0     0  0            999 V2000
    0.3372   -0.7161   -1.9558 O   0  0  0  0  0  0  0  0  0  0  0  0
   -0.4082   -1.8254   -2.4007 C   0  0  0  0  0  0  0  0  0  0  0  0
    0.2156   -2.7294   -2.4077 H   0  0  0  0  0  0  0  0  0  0  0  0
   -1.2659   -2.0163   -1.7446 H   0  0  0  0  0  0  0  0  0  0  0  0
   -0.9859   -1.5530   -3.7937 C   0  0  0  0  0  0  0  0  0  0  0  0
   -1.7377   -0.7660   -3.7186 H   0  0  0  0  0  0  0  0  0  0  0  0
   -1.4667   -2.4713   -4.1349 H   0  0  0  0  0  0  0  0  0  0  0  0
    0.0063   -1.1179   -4.8373 N   0  0  0  0  0  0  0  0  0  0  0  0
    1.2755   -1.8774   -4.7394 C   0  0  0  0  0  0  0  0  0  0  0  0
    1.9193   -1.6203   -5.5779 H   0  0  0  0  0  0  0  0  0  0  0  0
    1.0768   -2.9471   -4.7646 H   0  0  0  0  0  0  0  0  0  0  0  0
    1.7857   -1.6191   -3.8145 H   0  0  0  0  0  0  0  0  0  0  0  0
    0.3009    0.3204   -4.6745 C   0  0  0  0  0  0  0  0  0  0  0  0
    0.6413    0.5095   -3.6584 H   0  0  0  0  0  0  0  0  0  0  0  0
   -0.5937    0.9106   -4.8628 H   0  0  0  0  0  0  0  0  0  0  0  0
    1.0743    0.6236   -5.3772 H   0  0  0  0  0  0  0  0  0  0  0  0
   -0.5928   -1.3286   -6.1780 C   0  0  0  0  0  0  0  0  0  0  0  0
    0.0616   -0.9160   -6.9433 H   0  0  0  0  0  0  0  0  0  0  0  0
   -1.5592   -0.8321   -6.2390 H   0  0  0  0  0  0  0  0  0  0  0  0
   -0.7288   -2.3914   -6.3698 H   0  0  0  0  0  0  0  0  0  0  0  0
    0.4721   -0.7683   -1.0040 H   0  0  0  0  0  0  0  0  0  0  0  0
  1  2  1  0  0  0  0
  2  3  1  0  0  0  0
  2  4  1  0  0  0  0
  2  5  1  0  0  0  0
  5  6  1  0  0  0  0
  5  7  1  0  0  0  0
  5  8  1  0  0  0  0
  8  9  1  0  0  0  0
  9 10  1  0  0  0  0
  9 11  1  0  0  0  0
  9 12  1  0  0  0  0
  8 13  1  0  0  0  0
 13 14  1  0  0  0  0
 13 15  1  0  0  0  0
 13 16  1  0  0  0  0
  8 17  1  0  0  0  0
 17 18  1  0  0  0  0
 17 19  1  0  0  0  0
 17 20  1  0  0  0  0
  1 21  1  0  0  0  0
M  CHG  1   1   1
M  END
