  53

 O          2.1110970536        1.0262918101        3.3291128257
 C          0.8867119437        1.0447302419        3.9952635166
 H          1.1115557516        1.1509845060        5.0609345084
 H          0.2881223528        1.9167238342        3.6966129800
 C         -0.0018502071       -0.1851358004        3.7402911369
 H         -0.3066308889       -0.2207568182        2.6891390821
 H         -0.8933865484       -0.0791493308        4.3608163965
 N          0.6159784996       -1.5103776347        4.0346894195
 C         -0.4564134020       -2.5212551787        4.0135298462
 H         -0.0342920891       -3.5137472786        4.1570623015
 H         -0.9527376808       -2.4792784947        3.0431940855
 H         -1.1788932647       -2.3263367840        4.8033304896
 C          1.2848947081       -1.5183369785        5.3436982699
 H          0.5959422245       -1.1919664124        6.1210958452
 H          2.1472496128       -0.8553859254        5.3235771756
 H          1.6257713887       -2.5257158644        5.5766261207
 C          1.5886024164       -1.8506479761        2.9796516589
 H          2.3701789760       -1.0951448099        2.9451575946
 H          1.0643956295       -1.8764935869        2.0242206933
 H          2.0277847048       -2.8252258613        3.1807190075
 H          1.9315668428        1.0871955212        2.3531995563
 C          0.5682647682       -0.1085449205       -4.0174420562
 O          0.5571023290        0.5061776949       -2.9510757988
 N         -0.5032748197       -0.7775358836       -4.4696428084
 H         -1.3841094065       -0.7003506380       -3.9673953263
 H         -0.5050103379       -1.2161472448       -5.3719888044
 N          1.6776217659       -0.1400045350       -4.8004605553
 H          1.7286736863       -0.7174248790       -5.6194631614
 H          2.5302881689        0.2533125804       -4.4457287227
 C         -1.0951840576       -1.2414137156        0.0025038668
 O         -0.8854418161       -1.5926340715        1.1655404199
 N         -0.6703038169       -0.0344886048       -0.4737110646
 H          0.0570994082        0.4153420210        0.0802967462
 H         -0.4730133163        0.0292466272       -1.4711068541
 N         -1.7862863479       -1.9984368965       -0.8728915148
 H         -2.1375752500       -1.5759508454       -1.7274281146
 H         -2.2596659954       -2.8121466919       -0.5205025420
 C          2.3663716254        1.9230838487        0.0583259588
 O          1.6170974503        1.2020317885        0.7270834703
 N          3.2672124137        2.7293043292        0.6696673887
 H          3.3731817740        2.6664539301        1.6677231239
 H          3.9400816328        3.2648036829        0.1527420027
 N          2.3350692297        1.9520984670       -1.2801450154
 H          2.9000228478        2.6084843249       -1.7879722330
 H          1.6469711771        1.4105289772       -1.8024091657
 C         -3.3766032082        0.6650817411       -2.6753027007
 O         -2.8682745514       -0.4103611680       -2.9902200908
 N         -4.2925220866        1.2671343896       -3.4727074943
 H         -4.6459656253        0.7472548732       -4.2568403004
 H         -4.8174795884        2.0654628837       -3.1647462105
 N         -3.0585472494        1.3033041142       -1.5316984675
 H         -3.3930550994        2.2324326145       -1.3515649783
 H         -2.2644048222        0.9587641161       -0.9964923254
