 xtb: 6.6.1 (unknown-commit)
          01102418283D

 53 48  0     0  0            999 V2000
    1.8218   -2.2975    1.0020 O   0  0  0  0  0  0  0  0  0  0  0  0
    1.2540   -2.3130    2.2832 C   0  0  0  0  0  0  0  0  0  0  0  0
    0.6316   -3.2104    2.3277 H   0  0  0  0  0  0  0  0  0  0  0  0
    2.0377   -2.4142    3.0465 H   0  0  0  0  0  0  0  0  0  0  0  0
    0.4540   -1.0505    2.6325 C   0  0  0  0  0  0  0  0  0  0  0  0
    1.0577   -0.1741    2.3761 H   0  0  0  0  0  0  0  0  0  0  0  0
    0.2800   -1.0383    3.7102 H   0  0  0  0  0  0  0  0  0  0  0  0
   -0.8636   -0.8957    1.9574 N   0  0  0  0  0  0  0  0  0  0  0  0
   -0.7735   -1.1322    0.5067 C   0  0  0  0  0  0  0  0  0  0  0  0
   -0.0616   -0.4451    0.0586 H   0  0  0  0  0  0  0  0  0  0  0  0
   -1.7583   -0.9525    0.0772 H   0  0  0  0  0  0  0  0  0  0  0  0
   -0.4630   -2.1527    0.3027 H   0  0  0  0  0  0  0  0  0  0  0  0
   -1.3262    0.4882    2.1686 C   0  0  0  0  0  0  0  0  0  0  0  0
   -0.6020    1.1840    1.7505 H   0  0  0  0  0  0  0  0  0  0  0  0
   -1.4435    0.6882    3.2313 H   0  0  0  0  0  0  0  0  0  0  0  0
   -2.2828    0.6128    1.6607 H   0  0  0  0  0  0  0  0  0  0  0  0
   -1.8713   -1.8122    2.5136 C   0  0  0  0  0  0  0  0  0  0  0  0
   -1.5825   -2.8471    2.3466 H   0  0  0  0  0  0  0  0  0  0  0  0
   -2.8203   -1.6211    2.0131 H   0  0  0  0  0  0  0  0  0  0  0  0
   -1.9894   -1.6430    3.5822 H   0  0  0  0  0  0  0  0  0  0  0  0
    2.4019   -1.5122    0.9057 H   0  0  0  0  0  0  0  0  0  0  0  0
    3.2841   -2.1994   -2.5057 C   0  0  0  0  0  0  0  0  0  0  0  0
    3.3161   -1.0301   -2.1359 O   0  0  0  0  0  0  0  0  0  0  0  0
    2.6612   -3.1665   -1.7922 N   0  0  0  0  0  0  0  0  0  0  0  0
    2.3247   -2.9532   -0.8659 H   0  0  0  0  0  0  0  0  0  0  0  0
    2.7535   -4.1335   -2.0455 H   0  0  0  0  0  0  0  0  0  0  0  0
    3.8578   -2.5913   -3.6657 N   0  0  0  0  0  0  0  0  0  0  0  0
    3.7811   -3.5278   -4.0175 H   0  0  0  0  0  0  0  0  0  0  0  0
    4.2679   -1.8894   -4.2555 H   0  0  0  0  0  0  0  0  0  0  0  0
   -0.9392    3.3181   -0.2761 C   0  0  0  0  0  0  0  0  0  0  0  0
   -0.9785    2.1922   -0.7829 O   0  0  0  0  0  0  0  0  0  0  0  0
    0.0017    3.6628    0.6141 N   0  0  0  0  0  0  0  0  0  0  0  0
    0.7027    2.9728    0.8935 H   0  0  0  0  0  0  0  0  0  0  0  0
    0.0442    4.5845    1.0074 H   0  0  0  0  0  0  0  0  0  0  0  0
   -1.8735    4.2538   -0.5721 N   0  0  0  0  0  0  0  0  0  0  0  0
   -1.8067    5.1951   -0.2314 H   0  0  0  0  0  0  0  0  0  0  0  0
   -2.5499    4.0541   -1.2864 H   0  0  0  0  0  0  0  0  0  0  0  0
    2.1677    0.9351    0.3036 C   0  0  0  0  0  0  0  0  0  0  0  0
    1.7193    1.5590    1.2701 O   0  0  0  0  0  0  0  0  0  0  0  0
    3.2535    0.1018    0.4397 N   0  0  0  0  0  0  0  0  0  0  0  0
    3.9189    0.3579    1.1528 H   0  0  0  0  0  0  0  0  0  0  0  0
    3.6376   -0.2464   -0.4360 H   0  0  0  0  0  0  0  0  0  0  0  0
    1.5616    0.8959   -0.8864 N   0  0  0  0  0  0  0  0  0  0  0  0
    1.9873    0.3720   -1.6380 H   0  0  0  0  0  0  0  0  0  0  0  0
    0.6939    1.4103   -1.0274 H   0  0  0  0  0  0  0  0  0  0  0  0
   -4.2088    0.2453   -0.6287 C   0  0  0  0  0  0  0  0  0  0  0  0
   -3.6965   -0.2555    0.3679 O   0  0  0  0  0  0  0  0  0  0  0  0
   -5.4387   -0.1365   -1.0591 N   0  0  0  0  0  0  0  0  0  0  0  0
   -5.9776   -0.7422   -0.4658 H   0  0  0  0  0  0  0  0  0  0  0  0
   -5.9237    0.3609   -1.7835 H   0  0  0  0  0  0  0  0  0  0  0  0
   -3.5890    1.1918   -1.3640 N   0  0  0  0  0  0  0  0  0  0  0  0
   -3.9700    1.4733   -2.2492 H   0  0  0  0  0  0  0  0  0  0  0  0
   -2.6226    1.4432   -1.1598 H   0  0  0  0  0  0  0  0  0  0  0  0
  1  2  1  0  0  0  0
  2  3  1  0  0  0  0
  2  4  1  0  0  0  0
  2  5  1  0  0  0  0
  5  6  1  0  0  0  0
  5  7  1  0  0  0  0
  5  8  1  0  0  0  0
  8  9  1  0  0  0  0
  9 10  1  0  0  0  0
  9 11  1  0  0  0  0
  9 12  1  0  0  0  0
  8 13  1  0  0  0  0
 13 14  1  0  0  0  0
 13 15  1  0  0  0  0
 13 16  1  0  0  0  0
  8 17  1  0  0  0  0
 17 18  1  0  0  0  0
 17 19  1  0  0  0  0
 17 20  1  0  0  0  0
  1 21  1  0  0  0  0
 22 23  2  0  0  0  0
 22 24  4  0  0  0  0
 24 25  1  0  0  0  0
 24 26  1  0  0  0  0
 22 27  4  0  0  0  0
 27 28  1  0  0  0  0
 27 29  1  0  0  0  0
 30 31  4  0  0  0  0
 30 32  4  0  0  0  0
 32 33  1  0  0  0  0
 32 34  1  0  0  0  0
 30 35  4  0  0  0  0
 35 36  1  0  0  0  0
 35 37  1  0  0  0  0
 38 39  4  0  0  0  0
 38 40  1  0  0  0  0
 40 41  1  0  0  0  0
 40 42  1  0  0  0  0
 38 43  4  0  0  0  0
 43 44  1  0  0  0  0
 43 45  1  0  0  0  0
 46 47  2  0  0  0  0
 46 48  1  0  0  0  0
 48 49  1  0  0  0  0
 48 50  1  0  0  0  0
 46 51  4  0  0  0  0
 51 52  1  0  0  0  0
 51 53  1  0  0  0  0
M  CHG  1   1   1
M  END
