 xtb: 6.6.1 (unknown-commit)
          01102415403D

 53 48  0     0  0            999 V2000
   -2.0863    1.4850   -1.1520 O   0  0  0  0  0  0  0  0  0  0  0  0
   -0.8957    1.2350   -0.4292 C   0  0  0  0  0  0  0  0  0  0  0  0
   -0.0820    1.5738   -1.0713 H   0  0  0  0  0  0  0  0  0  0  0  0
   -0.8810    1.8387    0.4866 H   0  0  0  0  0  0  0  0  0  0  0  0
   -0.7138   -0.2178   -0.0057 C   0  0  0  0  0  0  0  0  0  0  0  0
   -1.6321   -0.5808    0.4671 H   0  0  0  0  0  0  0  0  0  0  0  0
    0.0969   -0.2613    0.7219 H   0  0  0  0  0  0  0  0  0  0  0  0
   -0.3926   -1.1888   -1.0874 N   0  0  0  0  0  0  0  0  0  0  0  0
   -0.2828   -2.5144   -0.4548 C   0  0  0  0  0  0  0  0  0  0  0  0
    0.4469   -2.4802    0.3511 H   0  0  0  0  0  0  0  0  0  0  0  0
    0.0094   -3.2594   -1.1912 H   0  0  0  0  0  0  0  0  0  0  0  0
   -1.2490   -2.7816   -0.0296 H   0  0  0  0  0  0  0  0  0  0  0  0
    0.8806   -0.8535   -1.7416 C   0  0  0  0  0  0  0  0  0  0  0  0
    0.7827    0.0513   -2.3388 H   0  0  0  0  0  0  0  0  0  0  0  0
    1.1889   -1.6703   -2.3903 H   0  0  0  0  0  0  0  0  0  0  0  0
    1.6404   -0.6788   -0.9811 H   0  0  0  0  0  0  0  0  0  0  0  0
   -1.4781   -1.2350   -2.0780 C   0  0  0  0  0  0  0  0  0  0  0  0
   -1.5810   -0.2687   -2.5655 H   0  0  0  0  0  0  0  0  0  0  0  0
   -2.4088   -1.4866   -1.5709 H   0  0  0  0  0  0  0  0  0  0  0  0
   -1.2610   -1.9928   -2.8284 H   0  0  0  0  0  0  0  0  0  0  0  0
   -2.8408    1.1916   -0.6274 H   0  0  0  0  0  0  0  0  0  0  0  0
    3.1465    1.6102    0.1831 C   0  0  0  0  0  0  0  0  0  0  0  0
    2.4060    0.6811    0.4966 O   0  0  0  0  0  0  0  0  0  0  0  0
    3.0308    2.2762   -0.9788 N   0  0  0  0  0  0  0  0  0  0  0  0
    2.2705    2.0830   -1.6201 H   0  0  0  0  0  0  0  0  0  0  0  0
    3.6148    3.0684   -1.1753 H   0  0  0  0  0  0  0  0  0  0  0  0
    4.1369    2.0371    1.0132 N   0  0  0  0  0  0  0  0  0  0  0  0
    4.8265    2.6989    0.7062 H   0  0  0  0  0  0  0  0  0  0  0  0
    4.3570    1.4816    1.8202 H   0  0  0  0  0  0  0  0  0  0  0  0
    0.2490    2.8100   -3.6529 C   0  0  0  0  0  0  0  0  0  0  0  0
    0.9021    2.0614   -2.9298 O   0  0  0  0  0  0  0  0  0  0  0  0
   -1.0919    2.9199   -3.5479 N   0  0  0  0  0  0  0  0  0  0  0  0
   -1.5561    2.4942   -2.7571 H   0  0  0  0  0  0  0  0  0  0  0  0
   -1.5948    3.6201   -4.0623 H   0  0  0  0  0  0  0  0  0  0  0  0
    0.8414    3.5678   -4.6081 N   0  0  0  0  0  0  0  0  0  0  0  0
    0.3029    4.0750   -5.2868 H   0  0  0  0  0  0  0  0  0  0  0  0
    1.8117    3.4026   -4.8094 H   0  0  0  0  0  0  0  0  0  0  0  0
   -3.3762   -2.2878    1.8434 C   0  0  0  0  0  0  0  0  0  0  0  0
   -3.1449   -1.8826    0.7084 O   0  0  0  0  0  0  0  0  0  0  0  0
   -4.6454   -2.5454    2.2554 N   0  0  0  0  0  0  0  0  0  0  0  0
   -5.3741   -2.5281    1.5639 H   0  0  0  0  0  0  0  0  0  0  0  0
   -4.8344   -3.0184    3.1203 H   0  0  0  0  0  0  0  0  0  0  0  0
   -2.4043   -2.4941    2.7558 N   0  0  0  0  0  0  0  0  0  0  0  0
   -2.6433   -2.7354    3.7003 H   0  0  0  0  0  0  0  0  0  0  0  0
   -1.4440   -2.2172    2.5653 H   0  0  0  0  0  0  0  0  0  0  0  0
    1.2177   -1.4430    3.2910 C   0  0  0  0  0  0  0  0  0  0  0  0
    0.3636   -1.7441    2.4630 O   0  0  0  0  0  0  0  0  0  0  0  0
    1.1574   -1.9006    4.5730 N   0  0  0  0  0  0  0  0  0  0  0  0
    0.5034   -2.6359    4.7759 H   0  0  0  0  0  0  0  0  0  0  0  0
    1.9386   -1.8006    5.1963 H   0  0  0  0  0  0  0  0  0  0  0  0
    2.2534   -0.6355    2.9976 N   0  0  0  0  0  0  0  0  0  0  0  0
    2.8810   -0.3319    3.7198 H   0  0  0  0  0  0  0  0  0  0  0  0
    2.2898   -0.1739    2.0876 H   0  0  0  0  0  0  0  0  0  0  0  0
  1  2  1  0  0  0  0
  2  3  1  0  0  0  0
  2  4  1  0  0  0  0
  2  5  1  0  0  0  0
  5  6  1  0  0  0  0
  5  7  1  0  0  0  0
  5  8  1  0  0  0  0
  8  9  1  0  0  0  0
  9 10  1  0  0  0  0
  9 11  1  0  0  0  0
  9 12  1  0  0  0  0
  8 13  1  0  0  0  0
 13 14  1  0  0  0  0
 13 15  1  0  0  0  0
 13 16  1  0  0  0  0
  8 17  1  0  0  0  0
 17 18  1  0  0  0  0
 17 19  1  0  0  0  0
 17 20  1  0  0  0  0
  1 21  1  0  0  0  0
 22 23  2  0  0  0  0
 22 24  4  0  0  0  0
 24 25  1  0  0  0  0
 24 26  1  0  0  0  0
 22 27  1  0  0  0  0
 27 28  1  0  0  0  0
 27 29  1  0  0  0  0
 30 31  2  0  0  0  0
 30 32  4  0  0  0  0
 32 33  1  0  0  0  0
 32 34  1  0  0  0  0
 30 35  4  0  0  0  0
 35 36  1  0  0  0  0
 35 37  1  0  0  0  0
 38 39  2  0  0  0  0
 38 40  1  0  0  0  0
 40 41  1  0  0  0  0
 40 42  1  0  0  0  0
 38 43  4  0  0  0  0
 43 44  1  0  0  0  0
 43 45  1  0  0  0  0
 46 47  2  0  0  0  0
 46 48  1  0  0  0  0
 48 49  1  0  0  0  0
 48 50  1  0  0  0  0
 46 51  4  0  0  0  0
 51 52  1  0  0  0  0
 51 53  1  0  0  0  0
M  CHG  1   1   1
M  END
