  53

 O         -1.7536709767       -0.1425373726       -2.0011229922
 C         -0.3486163336       -0.1223381825       -2.0745472375
 H         -0.0703168687       -0.5935599972       -3.0210164146
 H          0.0114195625        0.9102625654       -2.1031530600
 C          0.3038643965       -0.8149919886       -0.8693188728
 H         -0.3899545265       -0.7287089392       -0.0301796213
 H          1.2472664962       -0.3288226880       -0.6118469297
 N          0.6059204193       -2.2644488409       -1.0222394966
 C          1.0563064760       -2.7453312003        0.2965249052
 H          1.9337751506       -2.1737095314        0.5950723674
 H          1.3101859033       -3.8016880765        0.2412075174
 H          0.2576417892       -2.6024593529        1.0223157783
 C          1.6966024293       -2.4632669291       -1.9884911734
 H          1.4013434352       -2.1290339188       -2.9795343931
 H          1.9592639448       -3.5180523084       -2.0399425819
 H          2.5618507633       -1.8903475554       -1.6536843596
 C         -0.5942465485       -3.0115529746       -1.4230534815
 H         -1.0024984540       -2.6156901861       -2.3493550696
 H         -1.3440337185       -2.9167098315       -0.6406455890
 H         -0.3503179683       -4.0632396263       -1.5601077362
 H         -2.0298588949        0.6430730838       -1.4791224759
 C          4.1171187150        0.2888091030        0.1433992397
 O          3.2918922733       -0.5787362544       -0.1337526985
 N          3.7874795368        1.4234919035        0.7899719025
 H          2.8005150393        1.6631500930        0.9059304149
 H          4.4559644031        2.1679620583        0.8770479578
 N          5.4285458769        0.1429383851       -0.1816711116
 H          6.1277958768        0.7812128512        0.1517865178
 H          5.7372434419       -0.7445249080       -0.5364241993
 C         -1.6707382153        3.1958086666       -0.8052884201
 O         -2.0765709477        2.0634404961       -0.5097590849
 N         -2.4086877441        4.0074399467       -1.5982240033
 H         -3.3343637579        3.7131459826       -1.8541588785
 H         -2.1489112589        4.9611284687       -1.7717388894
 N         -0.4783088966        3.6493816794       -0.4013484313
 H         -0.1827645845        4.5875007486       -0.6000239007
 H          0.1088790236        3.0673472483        0.2050516098
 C         -3.0756759918       -1.7546476579        1.0967379438
 O         -1.8684551164       -1.7594844821        1.3358924905
 N         -3.5599497733       -1.5341080708       -0.1455090308
 H         -2.9413241770       -1.1393319048       -0.8470505566
 H         -4.5441469682       -1.3863461725       -0.2813758355
 N         -3.9897439480       -1.9997813233        2.0642368192
 H         -4.9678433780       -2.0931518692        1.8596197352
 H         -3.6668453509       -2.2946806648        2.9686268579
 C          0.4619487683        1.0634183009        1.8188458556
 O          1.0570566896        1.9529669119        1.1987936522
 N         -0.8718434848        0.9173828813        1.7722337372
 H         -1.3790673608        1.4114841938        1.0367599894
 H         -1.2804046582        0.0501323094        2.0877263130
 N          1.1402188568        0.1667714809        2.5768920585
 H          0.6457688038       -0.4633715932        3.1820889610
 H          2.1161747630        0.3279905640        2.7539028814
