  53

 O          0.8792010439       -0.1160491799        3.0392932259
 C         -0.3280594858        0.1047534192        2.3650181700
 H         -1.1281533259       -0.1824686296        3.0501076684
 H         -0.4551370556        1.1710257137        2.1374002088
 C         -0.4325726557       -0.6309310988        1.0244933913
 H          0.4523957566       -0.3925599490        0.4300002258
 H         -1.3230019124       -0.2756531992        0.5039832244
 N         -0.5331972670       -2.1147112427        1.0936052717
 C          0.7201337427       -2.6849182747        1.6095463377
 H          1.5257540170       -2.4424151933        0.9190996093
 H          0.6320444859       -3.7660956292        1.6968255829
 H          0.9492356006       -2.2524003899        2.5821013336
 C         -0.7641257601       -2.6000588219       -0.2781319919
 H          0.0643315056       -2.2892840883       -0.9115146161
 H         -1.6959909702       -2.1768870613       -0.6490422152
 H         -0.8321389908       -3.6861097465       -0.2808796952
 C         -1.6699868587       -2.5292788087        1.9287709543
 H         -1.4901701723       -2.2783815929        2.9706548011
 H         -1.8092747209       -3.6059118829        1.8508825725
 H         -2.5668015962       -2.0247300860        1.5690070777
 H          1.5814745042        0.3129136195        2.5158148926
 C          3.2155722108       -1.2706983078       -1.1317233205
 O          1.9860178305       -1.3581022473       -1.1612789561
 N          3.8522016297       -0.4904800809       -0.2456589182
 H          3.3025780129        0.1475067184        0.3270372731
 H          4.8475763051       -0.3670150040       -0.2792915893
 N          3.9889175550       -1.9785891380       -1.9918243099
 H          4.9894036568       -1.9944118422       -1.9163811606
 H          3.5493061091       -2.6482589438       -2.5972686484
 C          2.0771794960        2.5182483146        0.9460112745
 O          2.2860250779        1.3256305960        1.1805668246
 N          2.8963497642        3.4770808665        1.4439385366
 H          3.6013952215        3.2027130663        2.1051688353
 H          2.6806473304        4.4541517582        1.3653672960
 N          1.0513476905        2.9354467253        0.1885248171
 H          0.9338954940        3.9080738651       -0.0295146667
 H          0.4394142392        2.2684085079       -0.2766182613
 C         -0.7738183791        0.9532878522       -2.4062569074
 O         -0.8538807524        1.4330947284       -1.2727959705
 N         -1.6897292016        1.2560651891       -3.3568860986
 H         -2.4614230793        1.8515851460       -3.1169949120
 H         -1.6651222846        0.8512668543       -4.2742561555
 N          0.2244751976        0.1367323858       -2.7794469139
 H          0.2307831556       -0.2771200443       -3.6938583765
 H          0.8748856797       -0.2368138180       -2.0940263314
 C         -4.0487258440        0.2892535985       -0.0368810358
 O         -3.3518814592       -0.7177502612        0.0048171612
 N         -5.3445402737        0.2775758567        0.3738964504
 H         -5.7681019123       -0.6137386668        0.5634592796
 H         -5.9577704162        1.0521047389        0.1945025202
 N         -3.5779959639        1.4757406620       -0.4824128402
 H         -4.1054525783        2.3182504079       -0.3403904606
 H         -2.5791120732        1.5569686428       -0.6669363244
