 xtb: 6.6.1 (unknown-commit)
          01102415383D

 53 48  0     0  0            999 V2000
   -2.8852   -0.0080    1.6850 O   0  0  0  0  0  0  0  0  0  0  0  0
   -1.6284    0.4813    2.0591 C   0  0  0  0  0  0  0  0  0  0  0  0
   -1.7723    1.5331    2.3153 H   0  0  0  0  0  0  0  0  0  0  0  0
   -1.2661   -0.0324    2.9616 H   0  0  0  0  0  0  0  0  0  0  0  0
   -0.5498    0.2900    0.9872 C   0  0  0  0  0  0  0  0  0  0  0  0
   -0.5904   -0.7522    0.6662 H   0  0  0  0  0  0  0  0  0  0  0  0
    0.4360    0.4866    1.4151 H   0  0  0  0  0  0  0  0  0  0  0  0
   -0.6689    1.1444   -0.2223 N   0  0  0  0  0  0  0  0  0  0  0  0
   -1.9885    1.0193   -0.8582 C   0  0  0  0  0  0  0  0  0  0  0  0
   -2.1688   -0.0192   -1.1280 H   0  0  0  0  0  0  0  0  0  0  0  0
   -1.9981    1.6409   -1.7525 H   0  0  0  0  0  0  0  0  0  0  0  0
   -2.7717    1.3370   -0.1745 H   0  0  0  0  0  0  0  0  0  0  0  0
    0.3612    0.7192   -1.1855 C   0  0  0  0  0  0  0  0  0  0  0  0
    0.1966   -0.3171   -1.4716 H   0  0  0  0  0  0  0  0  0  0  0  0
    1.3397    0.8160   -0.7168 H   0  0  0  0  0  0  0  0  0  0  0  0
    0.2999    1.3574   -2.0651 H   0  0  0  0  0  0  0  0  0  0  0  0
   -0.4107    2.5541    0.1093 C   0  0  0  0  0  0  0  0  0  0  0  0
    0.5752    2.6335    0.5637 H   0  0  0  0  0  0  0  0  0  0  0  0
   -1.1643    2.9296    0.7960 H   0  0  0  0  0  0  0  0  0  0  0  0
   -0.4450    3.1364   -0.8100 H   0  0  0  0  0  0  0  0  0  0  0  0
   -2.7876   -0.9529    1.4594 H   0  0  0  0  0  0  0  0  0  0  0  0
    3.3716    0.6066    1.5624 C   0  0  0  0  0  0  0  0  0  0  0  0
    2.3887    1.1855    1.1148 O   0  0  0  0  0  0  0  0  0  0  0  0
    4.3678    1.2818    2.1924 N   0  0  0  0  0  0  0  0  0  0  0  0
    4.3405    2.2857    2.1755 H   0  0  0  0  0  0  0  0  0  0  0  0
    5.2347    0.8397    2.4381 H   0  0  0  0  0  0  0  0  0  0  0  0
    3.5408   -0.7306    1.4539 N   0  0  0  0  0  0  0  0  0  0  0  0
    4.2741   -1.1876    1.9660 H   0  0  0  0  0  0  0  0  0  0  0  0
    2.7595   -1.3061    1.1541 H   0  0  0  0  0  0  0  0  0  0  0  0
   -0.9030    3.8377   -3.9212 C   0  0  0  0  0  0  0  0  0  0  0  0
   -0.8388    3.0479   -2.9898 O   0  0  0  0  0  0  0  0  0  0  0  0
   -2.0725    4.1399   -4.5335 N   0  0  0  0  0  0  0  0  0  0  0  0
   -2.9012    3.6408   -4.2649 H   0  0  0  0  0  0  0  0  0  0  0  0
   -2.1139    4.7219   -5.3497 H   0  0  0  0  0  0  0  0  0  0  0  0
    0.1936    4.4656   -4.4115 N   0  0  0  0  0  0  0  0  0  0  0  0
    0.1268    5.1929   -5.0995 H   0  0  0  0  0  0  0  0  0  0  0  0
    1.0663    4.3520   -3.9278 H   0  0  0  0  0  0  0  0  0  0  0  0
   -1.6539   -3.1155    2.2844 C   0  0  0  0  0  0  0  0  0  0  0  0
   -1.9763   -2.5848    1.2133 O   0  0  0  0  0  0  0  0  0  0  0  0
   -2.5883   -3.4518    3.1994 N   0  0  0  0  0  0  0  0  0  0  0  0
   -3.5576   -3.3277    2.9658 H   0  0  0  0  0  0  0  0  0  0  0  0
   -2.3589   -3.9339    4.0488 H   0  0  0  0  0  0  0  0  0  0  0  0
   -0.3710   -3.3512    2.5939 N   0  0  0  0  0  0  0  0  0  0  0  0
   -0.1065   -3.7707    3.4658 H   0  0  0  0  0  0  0  0  0  0  0  0
    0.3570   -3.0441    1.9480 H   0  0  0  0  0  0  0  0  0  0  0  0
    1.1003   -2.8347   -0.5379 C   0  0  0  0  0  0  0  0  0  0  0  0
    1.4259   -2.4972    0.6016 O   0  0  0  0  0  0  0  0  0  0  0  0
    2.0305   -3.0899   -1.4862 N   0  0  0  0  0  0  0  0  0  0  0  0
    3.0012   -3.0575   -1.2309 H   0  0  0  0  0  0  0  0  0  0  0  0
    1.7882   -3.4161   -2.4036 H   0  0  0  0  0  0  0  0  0  0  0  0
   -0.1923   -2.8846   -0.9246 N   0  0  0  0  0  0  0  0  0  0  0  0
   -0.4458   -3.3451   -1.7811 H   0  0  0  0  0  0  0  0  0  0  0  0
   -0.9077   -2.8320   -0.1915 H   0  0  0  0  0  0  0  0  0  0  0  0
  1  2  1  0  0  0  0
  2  3  1  0  0  0  0
  2  4  1  0  0  0  0
  2  5  1  0  0  0  0
  5  6  1  0  0  0  0
  5  7  1  0  0  0  0
  5  8  1  0  0  0  0
  8  9  1  0  0  0  0
  9 10  1  0  0  0  0
  9 11  1  0  0  0  0
  9 12  1  0  0  0  0
  8 13  1  0  0  0  0
 13 14  1  0  0  0  0
 13 15  1  0  0  0  0
 13 16  1  0  0  0  0
  8 17  1  0  0  0  0
 17 18  1  0  0  0  0
 17 19  1  0  0  0  0
 17 20  1  0  0  0  0
  1 21  1  0  0  0  0
 22 23  2  0  0  0  0
 22 24  1  0  0  0  0
 24 25  1  0  0  0  0
 24 26  1  0  0  0  0
 22 27  4  0  0  0  0
 27 28  1  0  0  0  0
 27 29  1  0  0  0  0
 30 31  2  0  0  0  0
 30 32  4  0  0  0  0
 32 33  1  0  0  0  0
 32 34  1  0  0  0  0
 30 35  4  0  0  0  0
 35 36  1  0  0  0  0
 35 37  1  0  0  0  0
 38 39  4  0  0  0  0
 38 40  4  0  0  0  0
 40 41  1  0  0  0  0
 40 42  1  0  0  0  0
 38 43  4  0  0  0  0
 43 44  1  0  0  0  0
 43 45  1  0  0  0  0
 46 47  4  0  0  0  0
 46 48  4  0  0  0  0
 48 49  1  0  0  0  0
 48 50  1  0  0  0  0
 46 51  4  0  0  0  0
 51 52  1  0  0  0  0
 51 53  1  0  0  0  0
M  CHG  1   1   1
M  END
