 xtb: 6.6.1 (unknown-commit)
          01102418343D

 53 48  0     0  0            999 V2000
   -2.4899   -0.6027    3.9988 O   0  0  0  0  0  0  0  0  0  0  0  0
   -1.8121   -1.7849    3.6394 C   0  0  0  0  0  0  0  0  0  0  0  0
   -1.0471   -2.0279    4.3910 H   0  0  0  0  0  0  0  0  0  0  0  0
   -2.5067   -2.6328    3.5850 H   0  0  0  0  0  0  0  0  0  0  0  0
   -1.1822   -1.6529    2.2502 C   0  0  0  0  0  0  0  0  0  0  0  0
   -1.9680   -1.5515    1.4968 H   0  0  0  0  0  0  0  0  0  0  0  0
   -0.6292   -2.5750    2.0603 H   0  0  0  0  0  0  0  0  0  0  0  0
   -0.2624   -0.5025    2.0526 N   0  0  0  0  0  0  0  0  0  0  0  0
   -1.0328    0.7349    1.8340 C   0  0  0  0  0  0  0  0  0  0  0  0
   -1.6769    0.5964    0.9697 H   0  0  0  0  0  0  0  0  0  0  0  0
   -0.3334    1.5501    1.6583 H   0  0  0  0  0  0  0  0  0  0  0  0
   -1.6454    0.9426    2.7066 H   0  0  0  0  0  0  0  0  0  0  0  0
    0.5376   -0.7549    0.8419 C   0  0  0  0  0  0  0  0  0  0  0  0
   -0.1227   -0.9458   -0.0018 H   0  0  0  0  0  0  0  0  0  0  0  0
    1.1883   -1.6145    0.9876 H   0  0  0  0  0  0  0  0  0  0  0  0
    1.1489    0.1242    0.6401 H   0  0  0  0  0  0  0  0  0  0  0  0
    0.6461   -0.3020    3.1905 C   0  0  0  0  0  0  0  0  0  0  0  0
    1.2006   -1.2150    3.3985 H   0  0  0  0  0  0  0  0  0  0  0  0
    0.0811   -0.0041    4.0698 H   0  0  0  0  0  0  0  0  0  0  0  0
    1.3402    0.4974    2.9281 H   0  0  0  0  0  0  0  0  0  0  0  0
   -3.0690   -0.7739    4.7477 H   0  0  0  0  0  0  0  0  0  0  0  0
    1.6354   -1.6977   -2.8327 C   0  0  0  0  0  0  0  0  0  0  0  0
    0.5003   -1.7118   -2.3456 O   0  0  0  0  0  0  0  0  0  0  0  0
    2.3888   -0.5921   -2.8578 N   0  0  0  0  0  0  0  0  0  0  0  0
    2.0158    0.2939   -2.5025 H   0  0  0  0  0  0  0  0  0  0  0  0
    3.2977   -0.5920   -3.2828 H   0  0  0  0  0  0  0  0  0  0  0  0
    2.1884   -2.8302   -3.3349 N   0  0  0  0  0  0  0  0  0  0  0  0
    3.0677   -2.8218   -3.8182 H   0  0  0  0  0  0  0  0  0  0  0  0
    1.6234   -3.6580   -3.3923 H   0  0  0  0  0  0  0  0  0  0  0  0
    2.7053    2.8256    1.2573 C   0  0  0  0  0  0  0  0  0  0  0  0
    1.8609    2.0027    1.5978 O   0  0  0  0  0  0  0  0  0  0  0  0
    2.8376    3.2420   -0.0171 N   0  0  0  0  0  0  0  0  0  0  0  0
    2.3430    2.7237   -0.7458 H   0  0  0  0  0  0  0  0  0  0  0  0
    3.6326    3.7908   -0.2918 H   0  0  0  0  0  0  0  0  0  0  0  0
    3.5613    3.3769    2.1608 N   0  0  0  0  0  0  0  0  0  0  0  0
    4.1461    4.1556    1.9167 H   0  0  0  0  0  0  0  0  0  0  0  0
    3.3901    3.2147    3.1373 H   0  0  0  0  0  0  0  0  0  0  0  0
    0.0980    1.7977   -1.6118 C   0  0  0  0  0  0  0  0  0  0  0  0
    1.3115    1.7793   -1.8469 O   0  0  0  0  0  0  0  0  0  0  0  0
   -0.7121    0.7876   -1.9610 N   0  0  0  0  0  0  0  0  0  0  0  0
   -0.2717   -0.0956   -2.2252 H   0  0  0  0  0  0  0  0  0  0  0  0
   -1.6333    0.7053   -1.5610 H   0  0  0  0  0  0  0  0  0  0  0  0
   -0.4759    2.8514   -0.9763 N   0  0  0  0  0  0  0  0  0  0  0  0
   -1.4752    2.9440   -0.9457 H   0  0  0  0  0  0  0  0  0  0  0  0
    0.0750    3.6818   -0.8448 H   0  0  0  0  0  0  0  0  0  0  0  0
   -3.0280   -1.7267   -1.2232 C   0  0  0  0  0  0  0  0  0  0  0  0
   -2.5625   -0.8812   -0.4615 O   0  0  0  0  0  0  0  0  0  0  0  0
   -4.3588   -1.9880   -1.2534 N   0  0  0  0  0  0  0  0  0  0  0  0
   -4.9724   -1.4282   -0.6894 H   0  0  0  0  0  0  0  0  0  0  0  0
   -4.7661   -2.6278   -1.9100 H   0  0  0  0  0  0  0  0  0  0  0  0
   -2.2545   -2.4799   -2.0277 N   0  0  0  0  0  0  0  0  0  0  0  0
   -2.6639   -3.0945   -2.7074 H   0  0  0  0  0  0  0  0  0  0  0  0
   -1.2667   -2.2691   -2.1127 H   0  0  0  0  0  0  0  0  0  0  0  0
  1  2  1  0  0  0  0
  2  3  1  0  0  0  0
  2  4  1  0  0  0  0
  2  5  1  0  0  0  0
  5  6  1  0  0  0  0
  5  7  1  0  0  0  0
  5  8  1  0  0  0  0
  8  9  1  0  0  0  0
  9 10  1  0  0  0  0
  9 11  1  0  0  0  0
  9 12  1  0  0  0  0
  8 13  1  0  0  0  0
 13 14  1  0  0  0  0
 13 15  1  0  0  0  0
 13 16  1  0  0  0  0
  8 17  1  0  0  0  0
 17 18  1  0  0  0  0
 17 19  1  0  0  0  0
 17 20  1  0  0  0  0
  1 21  1  0  0  0  0
 22 23  4  0  0  0  0
 22 24  4  0  0  0  0
 24 25  1  0  0  0  0
 24 26  1  0  0  0  0
 22 27  4  0  0  0  0
 27 28  1  0  0  0  0
 27 29  1  0  0  0  0
 30 31  2  0  0  0  0
 30 32  4  0  0  0  0
 32 33  1  0  0  0  0
 32 34  1  0  0  0  0
 30 35  1  0  0  0  0
 35 36  1  0  0  0  0
 35 37  1  0  0  0  0
 38 39  4  0  0  0  0
 38 40  4  0  0  0  0
 40 41  1  0  0  0  0
 40 42  1  0  0  0  0
 38 43  4  0  0  0  0
 43 44  1  0  0  0  0
 43 45  1  0  0  0  0
 46 47  2  0  0  0  0
 46 48  4  0  0  0  0
 48 49  1  0  0  0  0
 48 50  1  0  0  0  0
 46 51  4  0  0  0  0
 51 52  1  0  0  0  0
 51 53  1  0  0  0  0
M  CHG  1   1   1
M  END
