  53

 O         -0.9985807366       -0.3815281106       -2.9467846536
 C          0.2131783536       -0.1819005082       -2.2791168230
 H          0.9934859637       -0.6257328374       -2.9020000307
 H          0.4376478097        0.8876557381       -2.1847565725
 C          0.2311806244       -0.7591986170       -0.8557908951
 H         -0.7084732373       -0.5017162082       -0.3649224155
 H          1.0624363938       -0.3170300112       -0.3072831853
 N          0.3668172884       -2.2372375504       -0.7464875330
 C          0.3366780303       -2.5675372977        0.6895164335
 H          1.1901918062       -2.1104914684        1.1855188935
 H          0.3753456109       -3.6466952314        0.8242700609
 H         -0.5843138286       -2.1804048218        1.1267422944
 C          1.6451945854       -2.6943527512       -1.3131354499
 H          1.6378517674       -2.5976921630       -2.3957248703
 H          1.8081375041       -3.7404942933       -1.0614923824
 H          2.4549538678       -2.0918207189       -0.8987572797
 C         -0.7624132827       -2.9003169038       -1.4173635854
 H         -0.8359055257       -2.5639871062       -2.4496597946
 H         -1.6841871896       -2.6327705809       -0.9047449788
 H         -0.6336283184       -3.9803896875       -1.3886516103
 H         -1.6583859591        0.2383787036       -2.5809014639
 C          3.5762581543        0.7380544141       -0.4973518389
 O          3.2114819729       -0.3060589642        0.0555845013
 N          2.9377962182        1.9023709439       -0.3016844583
 H          2.2167890877        1.9600589788        0.4228543706
 H          3.2901181323        2.7571120558       -0.6923101606
 N          4.5954530898        0.7344294670       -1.3872746803
 H          4.9645083484        1.5839340716       -1.7739290194
 H          5.1336621640       -0.1067072665       -1.4965181345
 C         -1.6025897538        2.0695652333       -0.6016214210
 O         -2.3378764789        1.5060564033       -1.4189909210
 N         -0.8316311694        3.1272455380       -0.9662726656
 H         -1.0592289455        3.5892240816       -1.8304679528
 H         -0.3696991065        3.6669837152       -0.2553531023
 N         -1.4885665173        1.6675830042        0.6766285599
 H         -0.6856641847        1.9702791699        1.2140751704
 H         -1.8934666480        0.7689540879        0.9229647488
 C         -3.6115087235       -1.1602860901        0.5367841588
 O         -2.4282230284       -1.0826271573        0.8857804286
 N         -4.4299588251       -2.1137852750        1.0561614724
 H         -4.1102946557       -2.6189999761        1.8640492164
 H         -5.4209598080       -2.0839997177        0.8956054362
 N         -4.1263786332       -0.3657427074       -0.4076454386
 H         -5.0882344945       -0.4300065077       -0.6851461160
 H         -3.5336753254        0.3503994586       -0.8390231857
 C          1.4087919580        1.2108336929        2.7706500793
 O          1.1021325070        1.9242481672        1.8113440339
 N          2.1385350436        0.0882790365        2.6212831113
 H          2.5807796998       -0.0854289597        1.7158166057
 H          2.5099451506       -0.3867052328        3.4244051971
 N          0.9760574030        1.4963137758        4.0180873594
 H          1.2139114216        0.9335246941        4.8137080191
 H          0.4131198025        2.3155517474        4.1610933440
